MODEL        1
REMARK  Name = 
REMARK                            x       y       z     vdW  Elec       q    Type
REMARK                         _______ _______ _______ _____ _____    ______ ____
ROOT
ATOM      1  N   LIG    1        0.000   0.000   0.000  0.00  0.00    -0.261 N 
ATOM      2  C   LIG    1        0.000   0.000   0.000  0.00  0.00    +0.335 A 
ATOM      3  N   LIG    1        0.000   0.000   0.000  0.00  0.00    -0.243 N 
ATOM      4  C   LIG    1        0.000   0.000   0.000  0.00  0.00    +0.285 A 
ATOM      5  C   LIG    1        0.000   0.000   0.000  0.00  0.00    +0.172 A 
ATOM      6  N   LIG    1        0.000   0.000   0.000  0.00  0.00    -0.234 NA
ATOM      7  C   LIG    1        0.000   0.000   0.000  0.00  0.00    +0.120 A 
ATOM      8  C   LIG    1        0.000   0.000   0.000  0.00  0.00    +0.121 A 
ATOM      9  N   LIG    1        0.000   0.000   0.000  0.00  0.00    -0.223 NA
ATOM     10  O   LIG    1        0.000   0.000   0.000  0.00  0.00    -0.265 OA
ATOM     11  O   LIG    1        0.000   0.000   0.000  0.00  0.00    -0.246 OA
ATOM     12  C   LIG    1        0.000   0.000   0.000  0.00  0.00    +0.170 A 
ENDROOT
BRANCH   1  13
ATOM     13  C   LIG    1        0.000   0.000   0.000  0.00  0.00    +0.139 C 
BRANCH  13  18
ATOM     14  C   LIG    1        0.000   0.000   0.000  0.00  0.00    +0.138 A 
ATOM     15  C   LIG    1        0.000   0.000   0.000  0.00  0.00    +0.037 A 
ATOM     16  C   LIG    1        0.000   0.000   0.000  0.00  0.00    +0.003 A 
ATOM     17  C   LIG    1        0.000   0.000   0.000  0.00  0.00    -0.002 A 
ATOM     18  C   LIG    1        0.000   0.000   0.000  0.00  0.00    +0.004 A 
ATOM     19  C   LIG    1        0.000   0.000   0.000  0.00  0.00    +0.035 A 
BRANCH  14  21
ATOM     20  C   LIG    1        0.000   0.000   0.000  0.00  0.00    +0.252 C 
ATOM     21  O   LIG    1        0.000   0.000   0.000  0.00  0.00    -0.471 OA
ENDBRANCH  14  21
ENDBRANCH  13  18
ENDBRANCH   1  13
BRANCH   3  22
ATOM     22  C   LIG    1        0.000   0.000   0.000  0.00  0.00    +0.140 C 
BRANCH  22  23
ATOM     23  C   LIG    1        0.000   0.000   0.000  0.00  0.00    +0.001 A 
ATOM     24  C   LIG    1        0.000   0.000   0.000  0.00  0.00    -0.002 A 
ATOM     25  C   LIG    1        0.000   0.000   0.000  0.00  0.00    -0.000 A 
ATOM     26  C   LIG    1        0.000   0.000   0.000  0.00  0.00    -0.000 A 
ATOM     27  C   LIG    1        0.000   0.000   0.000  0.00  0.00    -0.000 A 
ATOM     28  C   LIG    1        0.000   0.000   0.000  0.00  0.00    -0.002 A 
ENDBRANCH  22  23
ENDBRANCH   3  22
TORSDOF 5
ENDMDL
MODEL        2
REMARK  Name = 
REMARK                            x       y       z     vdW  Elec       q    Type
REMARK                         _______ _______ _______ _____ _____    ______ ____
ROOT
ATOM      1  N   LIG    1        0.000   0.000   0.000  0.00  0.00    -0.269 N 
ATOM      2  C   LIG    1        0.000   0.000   0.000  0.00  0.00    +0.335 A 
ATOM      3  N   LIG    1        0.000   0.000   0.000  0.00  0.00    -0.243 N 
ATOM      4  C   LIG    1        0.000   0.000   0.000  0.00  0.00    +0.283 A 
ATOM      5  C   LIG    1        0.000   0.000   0.000  0.00  0.00    +0.151 A 
ATOM      6  N   LIG    1        0.000   0.000   0.000  0.00  0.00    -0.245 N 
ATOM      7  N   LIG    1        0.000   0.000   0.000  0.00  0.00    -0.172 NA
ATOM      8  C   LIG    1        0.000   0.000   0.000  0.00  0.00    +0.096 A 
ATOM      9  C   LIG    1        0.000   0.000   0.000  0.00  0.00    +0.056 C 
ATOM     10  O   LIG    1        0.000   0.000   0.000  0.00  0.00    -0.265 OA
ATOM     11  O   LIG    1        0.000   0.000   0.000  0.00  0.00    -0.246 OA
ATOM     12  C   LIG    1        0.000   0.000   0.000  0.00  0.00    +0.101 A 
ENDROOT
BRANCH   6  13
ATOM     13  C   LIG    1        0.000   0.000   0.000  0.00  0.00    +0.128 C 
ATOM     14  C   LIG    1        0.000   0.000   0.000  0.00  0.00    +0.028 C 
ENDBRANCH   6  13
BRANCH   1  15
ATOM     15  C   LIG    1        0.000   0.000   0.000  0.00  0.00    +0.197 C 
BRANCH  15  17
ATOM     16  N   LIG    1        0.000   0.000   0.000  0.00  0.00    -0.204 NA
ATOM     17  C   LIG    1        0.000   0.000   0.000  0.00  0.00    +0.265 C 
ATOM     18  O   LIG    1        0.000   0.000   0.000  0.00  0.00    -0.271 OA
BRANCH  16  19
ATOM     19  C   LIG    1        0.000   0.000   0.000  0.00  0.00    +0.115 C 
BRANCH  19  20
ATOM     20  C   LIG    1        0.000   0.000   0.000  0.00  0.00    +0.023 C 
BRANCH  20  22
ATOM     21  C   LIG    1        0.000   0.000   0.000  0.00  0.00    +0.000 C 
ATOM     22  C   LIG    1        0.000   0.000   0.000  0.00  0.00    +0.002 C 
ENDBRANCH  20  22
ENDBRANCH  19  20
ENDBRANCH  16  19
ENDBRANCH  15  17
ENDBRANCH   1  15
BRANCH   3  23
ATOM     23  C   LIG    1        0.000   0.000   0.000  0.00  0.00    +0.140 C 
BRANCH  23  24
ATOM     24  C   LIG    1        0.000   0.000   0.000  0.00  0.00    +0.001 A 
ATOM     25  C   LIG    1        0.000   0.000   0.000  0.00  0.00    +0.001 A 
ATOM     26  C   LIG    1        0.000   0.000   0.000  0.00  0.00    +0.037 A 
ATOM     27  C   LIG    1        0.000   0.000   0.000  0.00  0.00    +0.139 A 
ATOM     28  C   LIG    1        0.000   0.000   0.000  0.00  0.00    +0.037 A 
ATOM     29  C   LIG    1        0.000   0.000   0.000  0.00  0.00    +0.001 A 
BRANCH  27  30
ATOM     30  O   LIG    1        0.000   0.000   0.000  0.00  0.00    -0.471 OA
ATOM     31  C   LIG    1        0.000   0.000   0.000  0.00  0.00    +0.252 C 
ENDBRANCH  27  30
ENDBRANCH  23  24
ENDBRANCH   3  23
TORSDOF 9
ENDMDL
MODEL        3
REMARK  Name = 
REMARK                            x       y       z     vdW  Elec       q    Type
REMARK                         _______ _______ _______ _____ _____    ______ ____
ROOT
ATOM      1  N   LIG    1        0.000   0.000   0.000  0.00  0.00    -0.265 N 
ATOM      2  C   LIG    1        0.000   0.000   0.000  0.00  0.00    +0.335 A 
ATOM      3  N   LIG    1        0.000   0.000   0.000  0.00  0.00    -0.243 N 
ATOM      4  C   LIG    1        0.000   0.000   0.000  0.00  0.00    +0.285 A 
ATOM      5  C   LIG    1        0.000   0.000   0.000  0.00  0.00    +0.171 A 
ATOM      6  N   LIG    1        0.000   0.000   0.000  0.00  0.00    -0.234 NA
ATOM      7  C   LIG    1        0.000   0.000   0.000  0.00  0.00    +0.120 A 
ATOM      8  C   LIG    1        0.000   0.000   0.000  0.00  0.00    +0.121 A 
ATOM      9  N   LIG    1        0.000   0.000   0.000  0.00  0.00    -0.223 NA
ATOM     10  O   LIG    1        0.000   0.000   0.000  0.00  0.00    -0.265 OA
ATOM     11  O   LIG    1        0.000   0.000   0.000  0.00  0.00    -0.246 OA
ATOM     12  C   LIG    1        0.000   0.000   0.000  0.00  0.00    +0.170 A 
ENDROOT
BRANCH   1  14
ATOM     13  C   LIG    1        0.000   0.000   0.000  0.00  0.00    +0.027 C 
ATOM     14  C   LIG    1        0.000   0.000   0.000  0.00  0.00    +0.112 C 
ENDBRANCH   1  14
BRANCH   3  15
ATOM     15  C   LIG    1        0.000   0.000   0.000  0.00  0.00    +0.140 C 
BRANCH  15  16
ATOM     16  C   LIG    1        0.000   0.000   0.000  0.00  0.00    +0.001 A 
ATOM     17  C   LIG    1        0.000   0.000   0.000  0.00  0.00    +0.001 A 
ATOM     18  C   LIG    1        0.000   0.000   0.000  0.00  0.00    +0.037 A 
ATOM     19  C   LIG    1        0.000   0.000   0.000  0.00  0.00    +0.139 A 
ATOM     20  C   LIG    1        0.000   0.000   0.000  0.00  0.00    +0.037 A 
ATOM     21  C   LIG    1        0.000   0.000   0.000  0.00  0.00    +0.001 A 
BRANCH  19  22
ATOM     22  O   LIG    1        0.000   0.000   0.000  0.00  0.00    -0.471 OA
ATOM     23  C   LIG    1        0.000   0.000   0.000  0.00  0.00    +0.252 C 
ENDBRANCH  19  22
ENDBRANCH  15  16
ENDBRANCH   3  15
TORSDOF 4
ENDMDL
MODEL        4
REMARK  Name = 
REMARK                            x       y       z     vdW  Elec       q    Type
REMARK                         _______ _______ _______ _____ _____    ______ ____
ROOT
ATOM      1  C   LIG    1        0.000   0.000   0.000  0.00  0.00    +0.095 A 
ATOM      2  C   LIG    1        0.000   0.000   0.000  0.00  0.00    +0.084 A 
ATOM      3  N   LIG    1        0.000   0.000   0.000  0.00  0.00    -0.304 N 
ATOM      4  C   LIG    1        0.000   0.000   0.000  0.00  0.00    +0.147 A 
ATOM      5  N   LIG    1        0.000   0.000   0.000  0.00  0.00    -0.232 NA
ATOM      6  C   LIG    1        0.000   0.000   0.000  0.00  0.00    +0.061 A 
ATOM      7  C   LIG    1        0.000   0.000   0.000  0.00  0.00    +0.015 A 
ATOM      8  C   LIG    1        0.000   0.000   0.000  0.00  0.00    +0.007 A 
ATOM      9  C   LIG    1        0.000   0.000   0.000  0.00  0.00    +0.052 C 
ATOM     10  C   LIG    1        0.000   0.000   0.000  0.00  0.00    +0.073 A 
ATOM     11  C   LIG    1        0.000   0.000   0.000  0.00  0.00    +0.203 A 
ATOM     12  O   LIG    1        0.000   0.000   0.000  0.00  0.00    -0.286 OA
ENDROOT
BRANCH   1  13
ATOM     13  C   LIG    1        0.000   0.000   0.000  0.00  0.00    +0.200 C 
ATOM     14  O   LIG    1        0.000   0.000   0.000  0.00  0.00    -0.286 OA
BRANCH  13  18
ATOM     15  C   LIG    1        0.000   0.000   0.000  0.00  0.00    +0.139 A 
ATOM     16  C   LIG    1        0.000   0.000   0.000  0.00  0.00    +0.037 A 
ATOM     17  C   LIG    1        0.000   0.000   0.000  0.00  0.00    +0.006 A 
ATOM     18  C   LIG    1        0.000   0.000   0.000  0.00  0.00    +0.039 A 
ATOM     19  C   LIG    1        0.000   0.000   0.000  0.00  0.00    +0.006 A 
ATOM     20  C   LIG    1        0.000   0.000   0.000  0.00  0.00    +0.037 A 
BRANCH  15  22
ATOM     21  C   LIG    1        0.000   0.000   0.000  0.00  0.00    +0.252 C 
ATOM     22  O   LIG    1        0.000   0.000   0.000  0.00  0.00    -0.471 OA
ENDBRANCH  15  22
ENDBRANCH  13  18
ENDBRANCH   1  13
BRANCH   3  23
ATOM     23  C   LIG    1        0.000   0.000   0.000  0.00  0.00    +0.177 C 
BRANCH  23  24
ATOM     24  C   LIG    1        0.000   0.000   0.000  0.00  0.00    +0.199 C 
ATOM     25  O   LIG    1        0.000   0.000   0.000  0.00  0.00    -0.289 OA
BRANCH  24  26
ATOM     26  C   LIG    1        0.000   0.000   0.000  0.00  0.00    +0.074 A 
ATOM     27  C   LIG    1        0.000   0.000   0.000  0.00  0.00    +0.043 A 
ATOM     28  C   LIG    1        0.000   0.000   0.000  0.00  0.00    +0.139 A 
ATOM     29  C   LIG    1        0.000   0.000   0.000  0.00  0.00    +0.040 A 
ATOM     30  C   LIG    1        0.000   0.000   0.000  0.00  0.00    +0.040 A 
ATOM     31  C   LIG    1        0.000   0.000   0.000  0.00  0.00    +0.142 A 
BRANCH  28  32
ATOM     32  O   LIG    1        0.000   0.000   0.000  0.00  0.00    -0.471 OA
ATOM     33  C   LIG    1        0.000   0.000   0.000  0.00  0.00    +0.252 C 
ENDBRANCH  28  32
BRANCH  31  34
ATOM     34  O   LIG    1        0.000   0.000   0.000  0.00  0.00    -0.471 OA
ATOM     35  C   LIG    1        0.000   0.000   0.000  0.00  0.00    +0.252 C 
ENDBRANCH  31  34
ENDBRANCH  24  26
ENDBRANCH  23  24
ENDBRANCH   3  23
TORSDOF 8
ENDMDL
MODEL        5
REMARK  Name = 
REMARK                            x       y       z     vdW  Elec       q    Type
REMARK                         _______ _______ _______ _____ _____    ______ ____
ROOT
ATOM      1  N   LIG    1        0.000   0.000   0.000  0.00  0.00    -0.245 N 
ATOM      2  N   LIG    1        0.000   0.000   0.000  0.00  0.00    -0.172 NA
ATOM      3  C   LIG    1        0.000   0.000   0.000  0.00  0.00    +0.096 A 
ATOM      4  C   LIG    1        0.000   0.000   0.000  0.00  0.00    +0.101 A 
ATOM      5  N   LIG    1        0.000   0.000   0.000  0.00  0.00    -0.274 N 
ATOM      6  C   LIG    1        0.000   0.000   0.000  0.00  0.00    +0.334 A 
ATOM      7  O   LIG    1        0.000   0.000   0.000  0.00  0.00    -0.246 OA
ATOM      8  N   LIG    1        0.000   0.000   0.000  0.00  0.00    -0.243 N 
ATOM      9  C   LIG    1        0.000   0.000   0.000  0.00  0.00    +0.283 A 
ATOM     10  O   LIG    1        0.000   0.000   0.000  0.00  0.00    -0.265 OA
ATOM     11  C   LIG    1        0.000   0.000   0.000  0.00  0.00    +0.056 C 
ATOM     12  C   LIG    1        0.000   0.000   0.000  0.00  0.00    +0.151 A 
ENDROOT
BRANCH   1  14
ATOM     13  C   LIG    1        0.000   0.000   0.000  0.00  0.00    +0.028 C 
ATOM     14  C   LIG    1        0.000   0.000   0.000  0.00  0.00    +0.128 C 
ENDBRANCH   1  14
BRANCH   5  15
ATOM     15  C   LIG    1        0.000   0.000   0.000  0.00  0.00    +0.137 C 
BRANCH  15  16
ATOM     16  C   LIG    1        0.000   0.000   0.000  0.00  0.00    +0.004 A 
ATOM     17  C   LIG    1        0.000   0.000   0.000  0.00  0.00    -0.002 A 
ATOM     18  C   LIG    1        0.000   0.000   0.000  0.00  0.00    +0.003 A 
ATOM     19  C   LIG    1        0.000   0.000   0.000  0.00  0.00    +0.037 A 
ATOM     20  C   LIG    1        0.000   0.000   0.000  0.00  0.00    +0.138 A 
ATOM     21  C   LIG    1        0.000   0.000   0.000  0.00  0.00    +0.035 A 
BRANCH  20  22
ATOM     22  O   LIG    1        0.000   0.000   0.000  0.00  0.00    -0.471 OA
ATOM     23  C   LIG    1        0.000   0.000   0.000  0.00  0.00    +0.252 C 
ENDBRANCH  20  22
ENDBRANCH  15  16
ENDBRANCH   5  15
BRANCH   8  24
ATOM     24  C   LIG    1        0.000   0.000   0.000  0.00  0.00    +0.140 C 
BRANCH  24  25
ATOM     25  C   LIG    1        0.000   0.000   0.000  0.00  0.00    +0.001 A 
ATOM     26  C   LIG    1        0.000   0.000   0.000  0.00  0.00    -0.000 A 
ATOM     27  C   LIG    1        0.000   0.000   0.000  0.00  0.00    +0.029 A 
ATOM     28  C   LIG    1        0.000   0.000   0.000  0.00  0.00    +0.140 A 
ATOM     29  C   LIG    1        0.000   0.000   0.000  0.00  0.00    +0.029 A 
ATOM     30  F   LIG    1        0.000   0.000   0.000  0.00  0.00    -0.204 F 
ATOM     31  C   LIG    1        0.000   0.000   0.000  0.00  0.00    -0.000 A 
ENDBRANCH  24  25
ENDBRANCH   8  24
TORSDOF 6
ENDMDL
MODEL        6
REMARK  Name = 
REMARK                            x       y       z     vdW  Elec       q    Type
REMARK                         _______ _______ _______ _____ _____    ______ ____
ROOT
ATOM      1  C   LIG    1        0.000   0.000   0.000  0.00  0.00    +0.270 C 
ATOM      2  N   LIG    1        0.000   0.000   0.000  0.00  0.00    -0.199 NA
ATOM      3  O   LIG    1        0.000   0.000   0.000  0.00  0.00    -0.268 OA
ENDROOT
BRANCH   1   6
ATOM      4  N   LIG    1        0.000   0.000   0.000  0.00  0.00    -0.311 N 
ATOM      5  C   LIG    1        0.000   0.000   0.000  0.00  0.00    +0.085 A 
ATOM      6  C   LIG    1        0.000   0.000   0.000  0.00  0.00    +0.111 A 
ATOM      7  C   LIG    1        0.000   0.000   0.000  0.00  0.00    +0.204 A 
ATOM      8  C   LIG    1        0.000   0.000   0.000  0.00  0.00    +0.073 A 
ATOM      9  C   LIG    1        0.000   0.000   0.000  0.00  0.00    +0.007 A 
ATOM     10  C   LIG    1        0.000   0.000   0.000  0.00  0.00    +0.015 A 
ATOM     11  C   LIG    1        0.000   0.000   0.000  0.00  0.00    +0.061 A 
ATOM     12  N   LIG    1        0.000   0.000   0.000  0.00  0.00    -0.232 NA
ATOM     13  C   LIG    1        0.000   0.000   0.000  0.00  0.00    +0.052 C 
ATOM     14  O   LIG    1        0.000   0.000   0.000  0.00  0.00    -0.286 OA
ATOM     15  C   LIG    1        0.000   0.000   0.000  0.00  0.00    +0.146 A 
BRANCH   4  17
ATOM     16  C   LIG    1        0.000   0.000   0.000  0.00  0.00    +0.027 C 
ATOM     17  C   LIG    1        0.000   0.000   0.000  0.00  0.00    +0.108 C 
ENDBRANCH   4  17
ENDBRANCH   1   6
BRANCH   2  18
ATOM     18  C   LIG    1        0.000   0.000   0.000  0.00  0.00    +0.118 C 
ATOM     19  C   LIG    1        0.000   0.000   0.000  0.00  0.00    +0.028 C 
BRANCH  18  20
ATOM     20  C   LIG    1        0.000   0.000   0.000  0.00  0.00    +0.001 A 
ATOM     21  C   LIG    1        0.000   0.000   0.000  0.00  0.00    +0.001 A 
ATOM     22  C   LIG    1        0.000   0.000   0.000  0.00  0.00    +0.040 A 
ATOM     23  C   LIG    1        0.000   0.000   0.000  0.00  0.00    +0.172 A 
ATOM     24  C   LIG    1        0.000   0.000   0.000  0.00  0.00    +0.172 A 
ATOM     25  C   LIG    1        0.000   0.000   0.000  0.00  0.00    +0.037 A 
BRANCH  24  26
ATOM     26  O   LIG    1        0.000   0.000   0.000  0.00  0.00    -0.468 OA
ATOM     27  C   LIG    1        0.000   0.000   0.000  0.00  0.00    +0.253 C 
ENDBRANCH  24  26
BRANCH  23  28
ATOM     28  O   LIG    1        0.000   0.000   0.000  0.00  0.00    -0.468 OA
ATOM     29  C   LIG    1        0.000   0.000   0.000  0.00  0.00    +0.253 C 
ENDBRANCH  23  28
ENDBRANCH  18  20
ENDBRANCH   2  18
TORSDOF 6
ENDMDL
MODEL        7
REMARK  Name = 
REMARK                            x       y       z     vdW  Elec       q    Type
REMARK                         _______ _______ _______ _____ _____    ______ ____
ROOT
ATOM      1  C   LIG    1        0.000   0.000   0.000  0.00  0.00    +0.132 A 
ATOM      2  C   LIG    1        0.000   0.000   0.000  0.00  0.00    +0.087 A 
ATOM      3  N   LIG    1        0.000   0.000   0.000  0.00  0.00    -0.303 N 
ATOM      4  C   LIG    1        0.000   0.000   0.000  0.00  0.00    +0.147 A 
ATOM      5  N   LIG    1        0.000   0.000   0.000  0.00  0.00    -0.232 NA
ATOM      6  C   LIG    1        0.000   0.000   0.000  0.00  0.00    +0.061 A 
ATOM      7  C   LIG    1        0.000   0.000   0.000  0.00  0.00    +0.015 A 
ATOM      8  C   LIG    1        0.000   0.000   0.000  0.00  0.00    +0.007 A 
ATOM      9  C   LIG    1        0.000   0.000   0.000  0.00  0.00    +0.052 C 
ATOM     10  C   LIG    1        0.000   0.000   0.000  0.00  0.00    +0.073 A 
ATOM     11  C   LIG    1        0.000   0.000   0.000  0.00  0.00    +0.206 A 
ATOM     12  O   LIG    1        0.000   0.000   0.000  0.00  0.00    -0.286 OA
ENDROOT
BRANCH   1  13
ATOM     13  C   LIG    1        0.000   0.000   0.000  0.00  0.00    +0.346 C 
ATOM     14  O   LIG    1        0.000   0.000   0.000  0.00  0.00    -0.245 OA
BRANCH  13  16
ATOM     15  C   LIG    1        0.000   0.000   0.000  0.00  0.00    +0.256 C 
ATOM     16  O   LIG    1        0.000   0.000   0.000  0.00  0.00    -0.441 OA
ENDBRANCH  13  16
ENDBRANCH   1  13
BRANCH   3  17
ATOM     17  C   LIG    1        0.000   0.000   0.000  0.00  0.00    +0.195 C 
BRANCH  17  18
ATOM     18  C   LIG    1        0.000   0.000   0.000  0.00  0.00    +0.265 C 
ATOM     19  N   LIG    1        0.000   0.000   0.000  0.00  0.00    -0.203 NA
ATOM     20  O   LIG    1        0.000   0.000   0.000  0.00  0.00    -0.271 OA
BRANCH  19  21
ATOM     21  C   LIG    1        0.000   0.000   0.000  0.00  0.00    +0.120 C 
BRANCH  21  22
ATOM     22  C   LIG    1        0.000   0.000   0.000  0.00  0.00    +0.050 C 
BRANCH  22  23
ATOM     23  C   LIG    1        0.000   0.000   0.000  0.00  0.00    -0.017 A 
ATOM     24  C   LIG    1        0.000   0.000   0.000  0.00  0.00    -0.001 A 
ATOM     25  C   LIG    1        0.000   0.000   0.000  0.00  0.00    +0.040 A 
ATOM     26  C   LIG    1        0.000   0.000   0.000  0.00  0.00    +0.172 A 
ATOM     27  C   LIG    1        0.000   0.000   0.000  0.00  0.00    +0.172 A 
ATOM     28  C   LIG    1        0.000   0.000   0.000  0.00  0.00    +0.036 A 
BRANCH  27  29
ATOM     29  O   LIG    1        0.000   0.000   0.000  0.00  0.00    -0.468 OA
ATOM     30  C   LIG    1        0.000   0.000   0.000  0.00  0.00    +0.253 C 
ENDBRANCH  27  29
BRANCH  26  31
ATOM     31  O   LIG    1        0.000   0.000   0.000  0.00  0.00    -0.468 OA
ATOM     32  C   LIG    1        0.000   0.000   0.000  0.00  0.00    +0.253 C 
ENDBRANCH  26  31
ENDBRANCH  22  23
ENDBRANCH  21  22
ENDBRANCH  19  21
ENDBRANCH  17  18
ENDBRANCH   3  17
TORSDOF 9
ENDMDL
MODEL        8
REMARK  Name = 
REMARK                            x       y       z     vdW  Elec       q    Type
REMARK                         _______ _______ _______ _____ _____    ______ ____
ROOT
ATOM      1  N   LIG    1        0.000   0.000   0.000  0.00  0.00    -0.243 N 
ATOM      2  C   LIG    1        0.000   0.000   0.000  0.00  0.00    +0.285 A 
ATOM      3  C   LIG    1        0.000   0.000   0.000  0.00  0.00    +0.172 A 
ATOM      4  N   LIG    1        0.000   0.000   0.000  0.00  0.00    -0.234 NA
ATOM      5  C   LIG    1        0.000   0.000   0.000  0.00  0.00    +0.120 A 
ATOM      6  C   LIG    1        0.000   0.000   0.000  0.00  0.00    +0.121 A 
ATOM      7  N   LIG    1        0.000   0.000   0.000  0.00  0.00    -0.223 NA
ATOM      8  C   LIG    1        0.000   0.000   0.000  0.00  0.00    +0.170 A 
ATOM      9  N   LIG    1        0.000   0.000   0.000  0.00  0.00    -0.260 N 
ATOM     10  O   LIG    1        0.000   0.000   0.000  0.00  0.00    -0.265 OA
ATOM     11  C   LIG    1        0.000   0.000   0.000  0.00  0.00    +0.335 A 
ATOM     12  O   LIG    1        0.000   0.000   0.000  0.00  0.00    -0.246 OA
ENDROOT
BRANCH   1  13
ATOM     13  C   LIG    1        0.000   0.000   0.000  0.00  0.00    +0.140 C 
BRANCH  13  17
ATOM     14  C   LIG    1        0.000   0.000   0.000  0.00  0.00    +0.139 A 
ATOM     15  C   LIG    1        0.000   0.000   0.000  0.00  0.00    +0.037 A 
ATOM     16  C   LIG    1        0.000   0.000   0.000  0.00  0.00    +0.001 A 
ATOM     17  C   LIG    1        0.000   0.000   0.000  0.00  0.00    +0.001 A 
ATOM     18  C   LIG    1        0.000   0.000   0.000  0.00  0.00    +0.001 A 
ATOM     19  C   LIG    1        0.000   0.000   0.000  0.00  0.00    +0.037 A 
BRANCH  14  21
ATOM     20  C   LIG    1        0.000   0.000   0.000  0.00  0.00    +0.252 C 
ATOM     21  O   LIG    1        0.000   0.000   0.000  0.00  0.00    -0.471 OA
ENDBRANCH  14  21
ENDBRANCH  13  17
ENDBRANCH   1  13
BRANCH   9  22
ATOM     22  C   LIG    1        0.000   0.000   0.000  0.00  0.00    +0.141 C 
BRANCH  22  23
ATOM     23  C   LIG    1        0.000   0.000   0.000  0.00  0.00    +0.028 A 
ATOM     24  C   LIG    1        0.000   0.000   0.000  0.00  0.00    -0.000 A 
ATOM     25  C   LIG    1        0.000   0.000   0.000  0.00  0.00    -0.000 A 
ATOM     26  C   LIG    1        0.000   0.000   0.000  0.00  0.00    +0.002 A 
ATOM     27  C   LIG    1        0.000   0.000   0.000  0.00  0.00    +0.029 A 
ATOM     28  C   LIG    1        0.000   0.000   0.000  0.00  0.00    +0.138 A 
ATOM     29  F   LIG    1        0.000   0.000   0.000  0.00  0.00    -0.204 F 
ENDBRANCH  22  23
ENDBRANCH   9  22
TORSDOF 5
ENDMDL
MODEL        9
REMARK  Name = 
REMARK                            x       y       z     vdW  Elec       q    Type
REMARK                         _______ _______ _______ _____ _____    ______ ____
ROOT
ATOM      1  N   LIG    1        0.000   0.000   0.000  0.00  0.00    -0.303 N 
ATOM      2  C   LIG    1        0.000   0.000   0.000  0.00  0.00    +0.084 A 
ATOM      3  C   LIG    1        0.000   0.000   0.000  0.00  0.00    +0.095 A 
ATOM      4  C   LIG    1        0.000   0.000   0.000  0.00  0.00    +0.203 A 
ATOM      5  C   LIG    1        0.000   0.000   0.000  0.00  0.00    +0.073 A 
ATOM      6  C   LIG    1        0.000   0.000   0.000  0.00  0.00    +0.007 A 
ATOM      7  C   LIG    1        0.000   0.000   0.000  0.00  0.00    +0.015 A 
ATOM      8  C   LIG    1        0.000   0.000   0.000  0.00  0.00    +0.061 A 
ATOM      9  N   LIG    1        0.000   0.000   0.000  0.00  0.00    -0.232 NA
ATOM     10  C   LIG    1        0.000   0.000   0.000  0.00  0.00    +0.052 C 
ATOM     11  O   LIG    1        0.000   0.000   0.000  0.00  0.00    -0.286 OA
ATOM     12  C   LIG    1        0.000   0.000   0.000  0.00  0.00    +0.147 A 
ENDROOT
BRANCH   3  13
ATOM     13  C   LIG    1        0.000   0.000   0.000  0.00  0.00    +0.200 C 
ATOM     14  O   LIG    1        0.000   0.000   0.000  0.00  0.00    -0.286 OA
BRANCH  13  15
ATOM     15  C   LIG    1        0.000   0.000   0.000  0.00  0.00    +0.039 A 
ATOM     16  C   LIG    1        0.000   0.000   0.000  0.00  0.00    +0.003 A 
ATOM     17  C   LIG    1        0.000   0.000   0.000  0.00  0.00    +0.000 A 
ATOM     18  C   LIG    1        0.000   0.000   0.000  0.00  0.00    +0.000 A 
ATOM     19  C   LIG    1        0.000   0.000   0.000  0.00  0.00    +0.000 A 
ATOM     20  C   LIG    1        0.000   0.000   0.000  0.00  0.00    +0.003 A 
ENDBRANCH  13  15
ENDBRANCH   3  13
BRANCH   1  21
ATOM     21  C   LIG    1        0.000   0.000   0.000  0.00  0.00    +0.195 C 
BRANCH  21  23
ATOM     22  N   LIG    1        0.000   0.000   0.000  0.00  0.00    -0.203 NA
ATOM     23  C   LIG    1        0.000   0.000   0.000  0.00  0.00    +0.265 C 
ATOM     24  O   LIG    1        0.000   0.000   0.000  0.00  0.00    -0.271 OA
BRANCH  22  25
ATOM     25  C   LIG    1        0.000   0.000   0.000  0.00  0.00    +0.120 C 
BRANCH  25  26
ATOM     26  C   LIG    1        0.000   0.000   0.000  0.00  0.00    +0.050 C 
BRANCH  26  30
ATOM     27  C   LIG    1        0.000   0.000   0.000  0.00  0.00    +0.172 A 
ATOM     28  C   LIG    1        0.000   0.000   0.000  0.00  0.00    +0.040 A 
ATOM     29  C   LIG    1        0.000   0.000   0.000  0.00  0.00    -0.001 A 
ATOM     30  C   LIG    1        0.000   0.000   0.000  0.00  0.00    -0.017 A 
ATOM     31  C   LIG    1        0.000   0.000   0.000  0.00  0.00    +0.036 A 
ATOM     32  C   LIG    1        0.000   0.000   0.000  0.00  0.00    +0.172 A 
BRANCH  27  34
ATOM     33  C   LIG    1        0.000   0.000   0.000  0.00  0.00    +0.253 C 
ATOM     34  O   LIG    1        0.000   0.000   0.000  0.00  0.00    -0.468 OA
ENDBRANCH  27  34
BRANCH  32  35
ATOM     35  O   LIG    1        0.000   0.000   0.000  0.00  0.00    -0.468 OA
ATOM     36  C   LIG    1        0.000   0.000   0.000  0.00  0.00    +0.253 C 
ENDBRANCH  32  35
ENDBRANCH  26  30
ENDBRANCH  25  26
ENDBRANCH  22  25
ENDBRANCH  21  23
ENDBRANCH   1  21
TORSDOF 9
ENDMDL
MODEL       10
REMARK  Name = 
REMARK                            x       y       z     vdW  Elec       q    Type
REMARK                         _______ _______ _______ _____ _____    ______ ____
ROOT
ATOM      1  N   LIG    1        0.000   0.000   0.000  0.00  0.00    -0.243 N 
ATOM      2  C   LIG    1        0.000   0.000   0.000  0.00  0.00    +0.285 A 
ATOM      3  C   LIG    1        0.000   0.000   0.000  0.00  0.00    +0.172 A 
ATOM      4  N   LIG    1        0.000   0.000   0.000  0.00  0.00    -0.234 NA
ATOM      5  C   LIG    1        0.000   0.000   0.000  0.00  0.00    +0.120 A 
ATOM      6  C   LIG    1        0.000   0.000   0.000  0.00  0.00    +0.121 A 
ATOM      7  N   LIG    1        0.000   0.000   0.000  0.00  0.00    -0.223 NA
ATOM      8  C   LIG    1        0.000   0.000   0.000  0.00  0.00    +0.170 A 
ATOM      9  N   LIG    1        0.000   0.000   0.000  0.00  0.00    -0.261 N 
ATOM     10  O   LIG    1        0.000   0.000   0.000  0.00  0.00    -0.265 OA
ATOM     11  C   LIG    1        0.000   0.000   0.000  0.00  0.00    +0.335 A 
ATOM     12  O   LIG    1        0.000   0.000   0.000  0.00  0.00    -0.246 OA
ENDROOT
BRANCH   1  13
ATOM     13  C   LIG    1        0.000   0.000   0.000  0.00  0.00    +0.140 C 
BRANCH  13  17
ATOM     14  C   LIG    1        0.000   0.000   0.000  0.00  0.00    +0.139 A 
ATOM     15  C   LIG    1        0.000   0.000   0.000  0.00  0.00    +0.037 A 
ATOM     16  C   LIG    1        0.000   0.000   0.000  0.00  0.00    +0.001 A 
ATOM     17  C   LIG    1        0.000   0.000   0.000  0.00  0.00    +0.001 A 
ATOM     18  C   LIG    1        0.000   0.000   0.000  0.00  0.00    +0.001 A 
ATOM     19  C   LIG    1        0.000   0.000   0.000  0.00  0.00    +0.037 A 
BRANCH  14  21
ATOM     20  C   LIG    1        0.000   0.000   0.000  0.00  0.00    +0.252 C 
ATOM     21  O   LIG    1        0.000   0.000   0.000  0.00  0.00    -0.471 OA
ENDBRANCH  14  21
ENDBRANCH  13  17
ENDBRANCH   1  13
BRANCH   9  22
ATOM     22  C   LIG    1        0.000   0.000   0.000  0.00  0.00    +0.138 C 
BRANCH  22  23
ATOM     23  C   LIG    1        0.000   0.000   0.000  0.00  0.00    -0.004 A 
ATOM     24  C   LIG    1        0.000   0.000   0.000  0.00  0.00    -0.007 A 
ATOM     25  C   LIG    1        0.000   0.000   0.000  0.00  0.00    -0.022 A 
ATOM     26  C   LIG    1        0.000   0.000   0.000  0.00  0.00    -0.005 A 
ATOM     27  C   LIG    1        0.000   0.000   0.000  0.00  0.00    -0.005 A 
ATOM     28  C   LIG    1        0.000   0.000   0.000  0.00  0.00    +0.031 C 
ATOM     29  C   LIG    1        0.000   0.000   0.000  0.00  0.00    -0.024 A 
ATOM     30  C   LIG    1        0.000   0.000   0.000  0.00  0.00    +0.031 C 
ENDBRANCH  22  23
ENDBRANCH   9  22
TORSDOF 5
ENDMDL
MODEL       11
REMARK  Name = 
REMARK                            x       y       z     vdW  Elec       q    Type
REMARK                         _______ _______ _______ _____ _____    ______ ____
ROOT
ATOM      1  N   LIG    1        0.000   0.000   0.000  0.00  0.00    -0.243 N 
ATOM      2  C   LIG    1        0.000   0.000   0.000  0.00  0.00    +0.285 A 
ATOM      3  C   LIG    1        0.000   0.000   0.000  0.00  0.00    +0.172 A 
ATOM      4  N   LIG    1        0.000   0.000   0.000  0.00  0.00    -0.234 NA
ATOM      5  C   LIG    1        0.000   0.000   0.000  0.00  0.00    +0.120 A 
ATOM      6  C   LIG    1        0.000   0.000   0.000  0.00  0.00    +0.121 A 
ATOM      7  N   LIG    1        0.000   0.000   0.000  0.00  0.00    -0.223 NA
ATOM      8  C   LIG    1        0.000   0.000   0.000  0.00  0.00    +0.170 A 
ATOM      9  N   LIG    1        0.000   0.000   0.000  0.00  0.00    -0.261 N 
ATOM     10  O   LIG    1        0.000   0.000   0.000  0.00  0.00    -0.265 OA
ATOM     11  C   LIG    1        0.000   0.000   0.000  0.00  0.00    +0.335 A 
ATOM     12  O   LIG    1        0.000   0.000   0.000  0.00  0.00    -0.246 OA
ENDROOT
BRANCH   1  13
ATOM     13  C   LIG    1        0.000   0.000   0.000  0.00  0.00    +0.140 C 
BRANCH  13  17
ATOM     14  C   LIG    1        0.000   0.000   0.000  0.00  0.00    +0.139 A 
ATOM     15  C   LIG    1        0.000   0.000   0.000  0.00  0.00    +0.037 A 
ATOM     16  C   LIG    1        0.000   0.000   0.000  0.00  0.00    +0.001 A 
ATOM     17  C   LIG    1        0.000   0.000   0.000  0.00  0.00    +0.001 A 
ATOM     18  C   LIG    1        0.000   0.000   0.000  0.00  0.00    +0.001 A 
ATOM     19  C   LIG    1        0.000   0.000   0.000  0.00  0.00    +0.037 A 
BRANCH  14  21
ATOM     20  C   LIG    1        0.000   0.000   0.000  0.00  0.00    +0.252 C 
ATOM     21  O   LIG    1        0.000   0.000   0.000  0.00  0.00    -0.471 OA
ENDBRANCH  14  21
ENDBRANCH  13  17
ENDBRANCH   1  13
BRANCH   9  22
ATOM     22  C   LIG    1        0.000   0.000   0.000  0.00  0.00    +0.138 C 
BRANCH  22  23
ATOM     23  C   LIG    1        0.000   0.000   0.000  0.00  0.00    -0.003 A 
ATOM     24  C   LIG    1        0.000   0.000   0.000  0.00  0.00    -0.003 A 
ATOM     25  C   LIG    1        0.000   0.000   0.000  0.00  0.00    -0.000 A 
ATOM     26  C   LIG    1        0.000   0.000   0.000  0.00  0.00    -0.000 A 
ATOM     27  C   LIG    1        0.000   0.000   0.000  0.00  0.00    -0.005 A 
ATOM     28  C   LIG    1        0.000   0.000   0.000  0.00  0.00    -0.024 A 
ATOM     29  C   LIG    1        0.000   0.000   0.000  0.00  0.00    +0.031 C 
ENDBRANCH  22  23
ENDBRANCH   9  22
TORSDOF 5
ENDMDL
MODEL       12
REMARK  Name = 
REMARK                            x       y       z     vdW  Elec       q    Type
REMARK                         _______ _______ _______ _____ _____    ______ ____
ROOT
ATOM      1  N   LIG    1        0.000   0.000   0.000  0.00  0.00    -0.243 N 
ATOM      2  C   LIG    1        0.000   0.000   0.000  0.00  0.00    +0.285 A 
ATOM      3  C   LIG    1        0.000   0.000   0.000  0.00  0.00    +0.172 A 
ATOM      4  N   LIG    1        0.000   0.000   0.000  0.00  0.00    -0.234 NA
ATOM      5  C   LIG    1        0.000   0.000   0.000  0.00  0.00    +0.120 A 
ATOM      6  C   LIG    1        0.000   0.000   0.000  0.00  0.00    +0.121 A 
ATOM      7  N   LIG    1        0.000   0.000   0.000  0.00  0.00    -0.223 NA
ATOM      8  C   LIG    1        0.000   0.000   0.000  0.00  0.00    +0.170 A 
ATOM      9  N   LIG    1        0.000   0.000   0.000  0.00  0.00    -0.261 N 
ATOM     10  O   LIG    1        0.000   0.000   0.000  0.00  0.00    -0.265 OA
ATOM     11  C   LIG    1        0.000   0.000   0.000  0.00  0.00    +0.335 A 
ATOM     12  O   LIG    1        0.000   0.000   0.000  0.00  0.00    -0.246 OA
ENDROOT
BRANCH   1  13
ATOM     13  C   LIG    1        0.000   0.000   0.000  0.00  0.00    +0.140 C 
BRANCH  13  17
ATOM     14  C   LIG    1        0.000   0.000   0.000  0.00  0.00    +0.139 A 
ATOM     15  C   LIG    1        0.000   0.000   0.000  0.00  0.00    +0.037 A 
ATOM     16  C   LIG    1        0.000   0.000   0.000  0.00  0.00    +0.001 A 
ATOM     17  C   LIG    1        0.000   0.000   0.000  0.00  0.00    +0.001 A 
ATOM     18  C   LIG    1        0.000   0.000   0.000  0.00  0.00    +0.001 A 
ATOM     19  C   LIG    1        0.000   0.000   0.000  0.00  0.00    +0.037 A 
BRANCH  14  21
ATOM     20  C   LIG    1        0.000   0.000   0.000  0.00  0.00    +0.252 C 
ATOM     21  O   LIG    1        0.000   0.000   0.000  0.00  0.00    -0.471 OA
ENDBRANCH  14  21
ENDBRANCH  13  17
ENDBRANCH   1  13
BRANCH   9  22
ATOM     22  C   LIG    1        0.000   0.000   0.000  0.00  0.00    +0.140 C 
BRANCH  22  23
ATOM     23  C   LIG    1        0.000   0.000   0.000  0.00  0.00    +0.011 A 
ATOM     24  C   LIG    1        0.000   0.000   0.000  0.00  0.00    +0.001 A 
ATOM     25  C   LIG    1        0.000   0.000   0.000  0.00  0.00    +0.029 A 
ATOM     26  C   LIG    1        0.000   0.000   0.000  0.00  0.00    +0.141 A 
ATOM     27  C   LIG    1        0.000   0.000   0.000  0.00  0.00    +0.041 A 
ATOM     28  F   LIG    1        0.000   0.000   0.000  0.00  0.00    -0.204 F 
ATOM     29  C   LIG    1        0.000   0.000   0.000  0.00  0.00    +0.058 A 
ATOM     30 CL   LIG    1        0.000   0.000   0.000  0.00  0.00    -0.082 Cl
ENDBRANCH  22  23
ENDBRANCH   9  22
TORSDOF 5
ENDMDL
MODEL       13
REMARK  Name = 
REMARK                            x       y       z     vdW  Elec       q    Type
REMARK                         _______ _______ _______ _____ _____    ______ ____
ROOT
ATOM      1  N   LIG    1        0.000   0.000   0.000  0.00  0.00    -0.303 N 
ATOM      2  C   LIG    1        0.000   0.000   0.000  0.00  0.00    +0.084 A 
ATOM      3  C   LIG    1        0.000   0.000   0.000  0.00  0.00    +0.095 A 
ATOM      4  C   LIG    1        0.000   0.000   0.000  0.00  0.00    +0.203 A 
ATOM      5  C   LIG    1        0.000   0.000   0.000  0.00  0.00    +0.073 A 
ATOM      6  C   LIG    1        0.000   0.000   0.000  0.00  0.00    +0.007 A 
ATOM      7  C   LIG    1        0.000   0.000   0.000  0.00  0.00    +0.015 A 
ATOM      8  C   LIG    1        0.000   0.000   0.000  0.00  0.00    +0.061 A 
ATOM      9  N   LIG    1        0.000   0.000   0.000  0.00  0.00    -0.232 NA
ATOM     10  C   LIG    1        0.000   0.000   0.000  0.00  0.00    +0.052 C 
ATOM     11  O   LIG    1        0.000   0.000   0.000  0.00  0.00    -0.286 OA
ATOM     12  C   LIG    1        0.000   0.000   0.000  0.00  0.00    +0.147 A 
ENDROOT
BRANCH   3  13
ATOM     13  C   LIG    1        0.000   0.000   0.000  0.00  0.00    +0.200 C 
ATOM     14  O   LIG    1        0.000   0.000   0.000  0.00  0.00    -0.286 OA
BRANCH  13  15
ATOM     15  C   LIG    1        0.000   0.000   0.000  0.00  0.00    +0.039 A 
ATOM     16  C   LIG    1        0.000   0.000   0.000  0.00  0.00    +0.003 A 
ATOM     17  C   LIG    1        0.000   0.000   0.000  0.00  0.00    -0.004 A 
ATOM     18  C   LIG    1        0.000   0.000   0.000  0.00  0.00    -0.022 A 
ATOM     19  C   LIG    1        0.000   0.000   0.000  0.00  0.00    -0.004 A 
ATOM     20  C   LIG    1        0.000   0.000   0.000  0.00  0.00    +0.031 C 
ATOM     21  C   LIG    1        0.000   0.000   0.000  0.00  0.00    +0.003 A 
ENDBRANCH  13  15
ENDBRANCH   3  13
BRANCH   1  22
ATOM     22  C   LIG    1        0.000   0.000   0.000  0.00  0.00    +0.195 C 
BRANCH  22  24
ATOM     23  N   LIG    1        0.000   0.000   0.000  0.00  0.00    -0.203 NA
ATOM     24  C   LIG    1        0.000   0.000   0.000  0.00  0.00    +0.265 C 
ATOM     25  O   LIG    1        0.000   0.000   0.000  0.00  0.00    -0.271 OA
BRANCH  23  26
ATOM     26  C   LIG    1        0.000   0.000   0.000  0.00  0.00    +0.120 C 
BRANCH  26  27
ATOM     27  C   LIG    1        0.000   0.000   0.000  0.00  0.00    +0.050 C 
BRANCH  27  31
ATOM     28  C   LIG    1        0.000   0.000   0.000  0.00  0.00    +0.172 A 
ATOM     29  C   LIG    1        0.000   0.000   0.000  0.00  0.00    +0.040 A 
ATOM     30  C   LIG    1        0.000   0.000   0.000  0.00  0.00    -0.001 A 
ATOM     31  C   LIG    1        0.000   0.000   0.000  0.00  0.00    -0.017 A 
ATOM     32  C   LIG    1        0.000   0.000   0.000  0.00  0.00    +0.036 A 
ATOM     33  C   LIG    1        0.000   0.000   0.000  0.00  0.00    +0.172 A 
BRANCH  28  35
ATOM     34  C   LIG    1        0.000   0.000   0.000  0.00  0.00    +0.253 C 
ATOM     35  O   LIG    1        0.000   0.000   0.000  0.00  0.00    -0.468 OA
ENDBRANCH  28  35
BRANCH  33  36
ATOM     36  O   LIG    1        0.000   0.000   0.000  0.00  0.00    -0.468 OA
ATOM     37  C   LIG    1        0.000   0.000   0.000  0.00  0.00    +0.253 C 
ENDBRANCH  33  36
ENDBRANCH  27  31
ENDBRANCH  26  27
ENDBRANCH  23  26
ENDBRANCH  22  24
ENDBRANCH   1  22
TORSDOF 9
ENDMDL
MODEL       14
REMARK  Name = 
REMARK                            x       y       z     vdW  Elec       q    Type
REMARK                         _______ _______ _______ _____ _____    ______ ____
ROOT
ATOM      1  N   LIG    1        0.000   0.000   0.000  0.00  0.00    -0.245 N 
ATOM      2  N   LIG    1        0.000   0.000   0.000  0.00  0.00    -0.172 NA
ATOM      3  C   LIG    1        0.000   0.000   0.000  0.00  0.00    +0.096 A 
ATOM      4  C   LIG    1        0.000   0.000   0.000  0.00  0.00    +0.101 A 
ATOM      5  N   LIG    1        0.000   0.000   0.000  0.00  0.00    -0.274 N 
ATOM      6  C   LIG    1        0.000   0.000   0.000  0.00  0.00    +0.334 A 
ATOM      7  O   LIG    1        0.000   0.000   0.000  0.00  0.00    -0.246 OA
ATOM      8  N   LIG    1        0.000   0.000   0.000  0.00  0.00    -0.247 N 
ATOM      9  C   LIG    1        0.000   0.000   0.000  0.00  0.00    +0.283 A 
ATOM     10  O   LIG    1        0.000   0.000   0.000  0.00  0.00    -0.265 OA
ATOM     11  C   LIG    1        0.000   0.000   0.000  0.00  0.00    +0.056 C 
ATOM     12  C   LIG    1        0.000   0.000   0.000  0.00  0.00    +0.151 A 
ENDROOT
BRANCH   1  14
ATOM     13  C   LIG    1        0.000   0.000   0.000  0.00  0.00    +0.028 C 
ATOM     14  C   LIG    1        0.000   0.000   0.000  0.00  0.00    +0.128 C 
ENDBRANCH   1  14
BRANCH   5  15
ATOM     15  C   LIG    1        0.000   0.000   0.000  0.00  0.00    +0.137 C 
BRANCH  15  16
ATOM     16  C   LIG    1        0.000   0.000   0.000  0.00  0.00    +0.000 A 
ATOM     17  C   LIG    1        0.000   0.000   0.000  0.00  0.00    -0.002 A 
ATOM     18  C   LIG    1        0.000   0.000   0.000  0.00  0.00    -0.001 A 
ATOM     19  C   LIG    1        0.000   0.000   0.000  0.00  0.00    -0.004 A 
ATOM     20  C   LIG    1        0.000   0.000   0.000  0.00  0.00    -0.022 A 
ATOM     21  C   LIG    1        0.000   0.000   0.000  0.00  0.00    +0.031 C 
ATOM     22  C   LIG    1        0.000   0.000   0.000  0.00  0.00    -0.007 A 
ENDBRANCH  15  16
ENDBRANCH   5  15
BRANCH   8  23
ATOM     23  C   LIG    1        0.000   0.000   0.000  0.00  0.00    +0.118 C 
BRANCH  23  24
ATOM     24  C   LIG    1        0.000   0.000   0.000  0.00  0.00    +0.051 C 
BRANCH  24  25
ATOM     25  C   LIG    1        0.000   0.000   0.000  0.00  0.00    -0.020 A 
ATOM     26  C   LIG    1        0.000   0.000   0.000  0.00  0.00    -0.004 A 
ATOM     27  C   LIG    1        0.000   0.000   0.000  0.00  0.00    -0.000 A 
ATOM     28  C   LIG    1        0.000   0.000   0.000  0.00  0.00    -0.000 A 
ATOM     29  C   LIG    1        0.000   0.000   0.000  0.00  0.00    -0.000 A 
ATOM     30  C   LIG    1        0.000   0.000   0.000  0.00  0.00    -0.004 A 
ENDBRANCH  24  25
ENDBRANCH  23  24
ENDBRANCH   8  23
TORSDOF 6
ENDMDL
MODEL       15
REMARK  Name = 
REMARK                            x       y       z     vdW  Elec       q    Type
REMARK                         _______ _______ _______ _____ _____    ______ ____
ROOT
ATOM      1  N   LIG    1        0.000   0.000   0.000  0.00  0.00    -0.261 N 
ATOM      2  C   LIG    1        0.000   0.000   0.000  0.00  0.00    +0.335 A 
ATOM      3  N   LIG    1        0.000   0.000   0.000  0.00  0.00    -0.243 N 
ATOM      4  C   LIG    1        0.000   0.000   0.000  0.00  0.00    +0.285 A 
ATOM      5  C   LIG    1        0.000   0.000   0.000  0.00  0.00    +0.172 A 
ATOM      6  N   LIG    1        0.000   0.000   0.000  0.00  0.00    -0.234 NA
ATOM      7  C   LIG    1        0.000   0.000   0.000  0.00  0.00    +0.120 A 
ATOM      8  C   LIG    1        0.000   0.000   0.000  0.00  0.00    +0.121 A 
ATOM      9  N   LIG    1        0.000   0.000   0.000  0.00  0.00    -0.223 NA
ATOM     10  O   LIG    1        0.000   0.000   0.000  0.00  0.00    -0.265 OA
ATOM     11  O   LIG    1        0.000   0.000   0.000  0.00  0.00    -0.246 OA
ATOM     12  C   LIG    1        0.000   0.000   0.000  0.00  0.00    +0.170 A 
ENDROOT
BRANCH   1  13
ATOM     13  C   LIG    1        0.000   0.000   0.000  0.00  0.00    +0.139 C 
BRANCH  13  18
ATOM     14  C   LIG    1        0.000   0.000   0.000  0.00  0.00    +0.138 A 
ATOM     15  C   LIG    1        0.000   0.000   0.000  0.00  0.00    +0.037 A 
ATOM     16  C   LIG    1        0.000   0.000   0.000  0.00  0.00    +0.003 A 
ATOM     17  C   LIG    1        0.000   0.000   0.000  0.00  0.00    -0.002 A 
ATOM     18  C   LIG    1        0.000   0.000   0.000  0.00  0.00    +0.004 A 
ATOM     19  C   LIG    1        0.000   0.000   0.000  0.00  0.00    +0.035 A 
BRANCH  14  21
ATOM     20  C   LIG    1        0.000   0.000   0.000  0.00  0.00    +0.252 C 
ATOM     21  O   LIG    1        0.000   0.000   0.000  0.00  0.00    -0.471 OA
ENDBRANCH  14  21
ENDBRANCH  13  18
ENDBRANCH   1  13
BRANCH   3  22
ATOM     22  C   LIG    1        0.000   0.000   0.000  0.00  0.00    +0.140 C 
BRANCH  22  23
ATOM     23  C   LIG    1        0.000   0.000   0.000  0.00  0.00    +0.001 A 
ATOM     24  C   LIG    1        0.000   0.000   0.000  0.00  0.00    -0.000 A 
ATOM     25  C   LIG    1        0.000   0.000   0.000  0.00  0.00    +0.029 A 
ATOM     26  C   LIG    1        0.000   0.000   0.000  0.00  0.00    +0.140 A 
ATOM     27  C   LIG    1        0.000   0.000   0.000  0.00  0.00    +0.029 A 
ATOM     28  F   LIG    1        0.000   0.000   0.000  0.00  0.00    -0.204 F 
ATOM     29  C   LIG    1        0.000   0.000   0.000  0.00  0.00    -0.000 A 
ENDBRANCH  22  23
ENDBRANCH   3  22
TORSDOF 5
ENDMDL
MODEL       16
REMARK  Name = 
REMARK                            x       y       z     vdW  Elec       q    Type
REMARK                         _______ _______ _______ _____ _____    ______ ____
ROOT
ATOM      1  N   LIG    1        0.000   0.000   0.000  0.00  0.00    -0.256 N 
ATOM      2  C   LIG    1        0.000   0.000   0.000  0.00  0.00    +0.335 A 
ATOM      3  N   LIG    1        0.000   0.000   0.000  0.00  0.00    -0.247 N 
ATOM      4  C   LIG    1        0.000   0.000   0.000  0.00  0.00    +0.285 A 
ATOM      5  C   LIG    1        0.000   0.000   0.000  0.00  0.00    +0.171 A 
ATOM      6  N   LIG    1        0.000   0.000   0.000  0.00  0.00    -0.234 NA
ATOM      7  C   LIG    1        0.000   0.000   0.000  0.00  0.00    +0.120 A 
ATOM      8  C   LIG    1        0.000   0.000   0.000  0.00  0.00    +0.121 A 
ATOM      9  N   LIG    1        0.000   0.000   0.000  0.00  0.00    -0.223 NA
ATOM     10  O   LIG    1        0.000   0.000   0.000  0.00  0.00    -0.265 OA
ATOM     11  O   LIG    1        0.000   0.000   0.000  0.00  0.00    -0.246 OA
ATOM     12  C   LIG    1        0.000   0.000   0.000  0.00  0.00    +0.170 A 
ENDROOT
BRANCH   1  13
ATOM     13  C   LIG    1        0.000   0.000   0.000  0.00  0.00    +0.199 C 
BRANCH  13  15
ATOM     14  N   LIG    1        0.000   0.000   0.000  0.00  0.00    -0.199 NA
ATOM     15  C   LIG    1        0.000   0.000   0.000  0.00  0.00    +0.265 C 
ATOM     16  O   LIG    1        0.000   0.000   0.000  0.00  0.00    -0.271 OA
BRANCH  14  17
ATOM     17  C   LIG    1        0.000   0.000   0.000  0.00  0.00    +0.145 C 
BRANCH  17  22
ATOM     18  C   LIG    1        0.000   0.000   0.000  0.00  0.00    +0.172 A 
ATOM     19  C   LIG    1        0.000   0.000   0.000  0.00  0.00    +0.040 A 
ATOM     20  C   LIG    1        0.000   0.000   0.000  0.00  0.00    +0.003 A 
ATOM     21  C   LIG    1        0.000   0.000   0.000  0.00  0.00    +0.001 A 
ATOM     22  C   LIG    1        0.000   0.000   0.000  0.00  0.00    +0.036 A 
ATOM     23  C   LIG    1        0.000   0.000   0.000  0.00  0.00    +0.170 A 
BRANCH  18  25
ATOM     24  C   LIG    1        0.000   0.000   0.000  0.00  0.00    +0.253 C 
ATOM     25  O   LIG    1        0.000   0.000   0.000  0.00  0.00    -0.468 OA
ENDBRANCH  18  25
BRANCH  23  26
ATOM     26  O   LIG    1        0.000   0.000   0.000  0.00  0.00    -0.469 OA
ATOM     27  C   LIG    1        0.000   0.000   0.000  0.00  0.00    +0.253 C 
ENDBRANCH  23  26
ENDBRANCH  17  22
ENDBRANCH  14  17
ENDBRANCH  13  15
ENDBRANCH   1  13
BRANCH   3  28
ATOM     28  C   LIG    1        0.000   0.000   0.000  0.00  0.00    +0.118 C 
BRANCH  28  29
ATOM     29  C   LIG    1        0.000   0.000   0.000  0.00  0.00    +0.051 C 
BRANCH  29  30
ATOM     30  C   LIG    1        0.000   0.000   0.000  0.00  0.00    -0.020 A 
ATOM     31  C   LIG    1        0.000   0.000   0.000  0.00  0.00    -0.004 A 
ATOM     32  C   LIG    1        0.000   0.000   0.000  0.00  0.00    -0.000 A 
ATOM     33  C   LIG    1        0.000   0.000   0.000  0.00  0.00    -0.000 A 
ATOM     34  C   LIG    1        0.000   0.000   0.000  0.00  0.00    -0.000 A 
ATOM     35  C   LIG    1        0.000   0.000   0.000  0.00  0.00    -0.004 A 
ENDBRANCH  29  30
ENDBRANCH  28  29
ENDBRANCH   3  28
TORSDOF 9
ENDMDL
MODEL       17
REMARK  Name = 
REMARK                            x       y       z     vdW  Elec       q    Type
REMARK                         _______ _______ _______ _____ _____    ______ ____
ROOT
ATOM      1  N   LIG    1        0.000   0.000   0.000  0.00  0.00    -0.243 N 
ATOM      2  C   LIG    1        0.000   0.000   0.000  0.00  0.00    +0.285 A 
ATOM      3  C   LIG    1        0.000   0.000   0.000  0.00  0.00    +0.172 A 
ATOM      4  N   LIG    1        0.000   0.000   0.000  0.00  0.00    -0.234 NA
ATOM      5  C   LIG    1        0.000   0.000   0.000  0.00  0.00    +0.120 A 
ATOM      6  C   LIG    1        0.000   0.000   0.000  0.00  0.00    +0.121 A 
ATOM      7  N   LIG    1        0.000   0.000   0.000  0.00  0.00    -0.223 NA
ATOM      8  C   LIG    1        0.000   0.000   0.000  0.00  0.00    +0.170 A 
ATOM      9  N   LIG    1        0.000   0.000   0.000  0.00  0.00    -0.261 N 
ATOM     10  O   LIG    1        0.000   0.000   0.000  0.00  0.00    -0.265 OA
ATOM     11  C   LIG    1        0.000   0.000   0.000  0.00  0.00    +0.335 A 
ATOM     12  O   LIG    1        0.000   0.000   0.000  0.00  0.00    -0.246 OA
ENDROOT
BRANCH   1  13
ATOM     13  C   LIG    1        0.000   0.000   0.000  0.00  0.00    +0.140 C 
BRANCH  13  17
ATOM     14  C   LIG    1        0.000   0.000   0.000  0.00  0.00    +0.139 A 
ATOM     15  C   LIG    1        0.000   0.000   0.000  0.00  0.00    +0.037 A 
ATOM     16  C   LIG    1        0.000   0.000   0.000  0.00  0.00    +0.001 A 
ATOM     17  C   LIG    1        0.000   0.000   0.000  0.00  0.00    +0.001 A 
ATOM     18  C   LIG    1        0.000   0.000   0.000  0.00  0.00    +0.001 A 
ATOM     19  C   LIG    1        0.000   0.000   0.000  0.00  0.00    +0.037 A 
BRANCH  14  21
ATOM     20  C   LIG    1        0.000   0.000   0.000  0.00  0.00    +0.252 C 
ATOM     21  O   LIG    1        0.000   0.000   0.000  0.00  0.00    -0.471 OA
ENDBRANCH  14  21
ENDBRANCH  13  17
ENDBRANCH   1  13
BRANCH   9  22
ATOM     22  C   LIG    1        0.000   0.000   0.000  0.00  0.00    +0.140 C 
BRANCH  22  23
ATOM     23  C   LIG    1        0.000   0.000   0.000  0.00  0.00    +0.011 A 
ATOM     24  C   LIG    1        0.000   0.000   0.000  0.00  0.00    -0.002 A 
ATOM     25  C   LIG    1        0.000   0.000   0.000  0.00  0.00    -0.000 A 
ATOM     26  C   LIG    1        0.000   0.000   0.000  0.00  0.00    +0.001 A 
ATOM     27  C   LIG    1        0.000   0.000   0.000  0.00  0.00    +0.011 A 
ATOM     28  C   LIG    1        0.000   0.000   0.000  0.00  0.00    +0.056 A 
ATOM     29 CL   LIG    1        0.000   0.000   0.000  0.00  0.00    -0.083 Cl
ENDBRANCH  22  23
ENDBRANCH   9  22
TORSDOF 5
ENDMDL
MODEL       18
REMARK  Name = 
REMARK                            x       y       z     vdW  Elec       q    Type
REMARK                         _______ _______ _______ _____ _____    ______ ____
ROOT
ATOM      1  N   LIG    1        0.000   0.000   0.000  0.00  0.00    -0.199 NA
ATOM      2  C   LIG    1        0.000   0.000   0.000  0.00  0.00    +0.267 C 
ATOM      3  O   LIG    1        0.000   0.000   0.000  0.00  0.00    -0.271 OA
ENDROOT
BRANCH   1   4
ATOM      4  C   LIG    1        0.000   0.000   0.000  0.00  0.00    +0.142 C 
BRANCH   4   8
ATOM      5  C   LIG    1        0.000   0.000   0.000  0.00  0.00    +0.172 A 
ATOM      6  C   LIG    1        0.000   0.000   0.000  0.00  0.00    +0.040 A 
ATOM      7  C   LIG    1        0.000   0.000   0.000  0.00  0.00    +0.001 A 
ATOM      8  C   LIG    1        0.000   0.000   0.000  0.00  0.00    +0.003 A 
ATOM      9  C   LIG    1        0.000   0.000   0.000  0.00  0.00    +0.037 A 
ATOM     10  C   LIG    1        0.000   0.000   0.000  0.00  0.00    +0.172 A 
BRANCH  10  11
ATOM     11  O   LIG    1        0.000   0.000   0.000  0.00  0.00    -0.468 OA
ATOM     12  C   LIG    1        0.000   0.000   0.000  0.00  0.00    +0.253 C 
ENDBRANCH  10  11
BRANCH   5  13
ATOM     13  O   LIG    1        0.000   0.000   0.000  0.00  0.00    -0.472 OA
BRANCH  13  15
ATOM     14  C   LIG    1        0.000   0.000   0.000  0.00  0.00    +0.051 C 
ATOM     15  C   LIG    1        0.000   0.000   0.000  0.00  0.00    +0.206 C 
ENDBRANCH  13  15
ENDBRANCH   5  13
ENDBRANCH   4   8
ENDBRANCH   1   4
BRANCH   2  16
ATOM     16  C   LIG    1        0.000   0.000   0.000  0.00  0.00    +0.217 C 
BRANCH  16  17
ATOM     17  N   LIG    1        0.000   0.000   0.000  0.00  0.00    -0.206 N 
ATOM     18  N   LIG    1        0.000   0.000   0.000  0.00  0.00    -0.171 NA
ATOM     19  C   LIG    1        0.000   0.000   0.000  0.00  0.00    +0.083 A 
ATOM     20  C   LIG    1        0.000   0.000   0.000  0.00  0.00    +0.074 A 
ATOM     21  C   LIG    1        0.000   0.000   0.000  0.00  0.00    +0.156 A 
ATOM     22  O   LIG    1        0.000   0.000   0.000  0.00  0.00    -0.358 OA
ATOM     23  N   LIG    1        0.000   0.000   0.000  0.00  0.00    -0.072 NA
ATOM     24  C   LIG    1        0.000   0.000   0.000  0.00  0.00    +0.075 C 
ATOM     25  C   LIG    1        0.000   0.000   0.000  0.00  0.00    +0.181 A 
ATOM     26  C   LIG    1        0.000   0.000   0.000  0.00  0.00    +0.054 C 
ATOM     27  C   LIG    1        0.000   0.000   0.000  0.00  0.00    +0.298 A 
ATOM     28  O   LIG    1        0.000   0.000   0.000  0.00  0.00    -0.264 OA
ENDBRANCH  16  17
ENDBRANCH   2  16
TORSDOF 7
ENDMDL
MODEL       19
REMARK  Name = 
REMARK                            x       y       z     vdW  Elec       q    Type
REMARK                         _______ _______ _______ _____ _____    ______ ____
ROOT
ATOM      1  N   LIG    1        0.000   0.000   0.000  0.00  0.00    -0.245 N 
ATOM      2  N   LIG    1        0.000   0.000   0.000  0.00  0.00    -0.172 NA
ATOM      3  C   LIG    1        0.000   0.000   0.000  0.00  0.00    +0.096 A 
ATOM      4  C   LIG    1        0.000   0.000   0.000  0.00  0.00    +0.101 A 
ATOM      5  N   LIG    1        0.000   0.000   0.000  0.00  0.00    -0.269 N 
ATOM      6  C   LIG    1        0.000   0.000   0.000  0.00  0.00    +0.335 A 
ATOM      7  O   LIG    1        0.000   0.000   0.000  0.00  0.00    -0.246 OA
ATOM      8  N   LIG    1        0.000   0.000   0.000  0.00  0.00    -0.243 N 
ATOM      9  C   LIG    1        0.000   0.000   0.000  0.00  0.00    +0.283 A 
ATOM     10  O   LIG    1        0.000   0.000   0.000  0.00  0.00    -0.265 OA
ATOM     11  C   LIG    1        0.000   0.000   0.000  0.00  0.00    +0.056 C 
ATOM     12  C   LIG    1        0.000   0.000   0.000  0.00  0.00    +0.151 A 
ENDROOT
BRANCH   1  14
ATOM     13  C   LIG    1        0.000   0.000   0.000  0.00  0.00    +0.028 C 
ATOM     14  C   LIG    1        0.000   0.000   0.000  0.00  0.00    +0.128 C 
ENDBRANCH   1  14
BRANCH   5  15
ATOM     15  C   LIG    1        0.000   0.000   0.000  0.00  0.00    +0.196 C 
BRANCH  15  16
ATOM     16  C   LIG    1        0.000   0.000   0.000  0.00  0.00    +0.249 C 
ATOM     17  N   LIG    1        0.000   0.000   0.000  0.00  0.00    -0.278 N 
ATOM     18  C   LIG    1        0.000   0.000   0.000  0.00  0.00    +0.093 C 
ATOM     19  C   LIG    1        0.000   0.000   0.000  0.00  0.00    +0.022 C 
ATOM     20  C   LIG    1        0.000   0.000   0.000  0.00  0.00    +0.004 C 
ATOM     21  C   LIG    1        0.000   0.000   0.000  0.00  0.00    +0.022 C 
ATOM     22  C   LIG    1        0.000   0.000   0.000  0.00  0.00    +0.093 C 
ATOM     23  O   LIG    1        0.000   0.000   0.000  0.00  0.00    -0.273 OA
ENDBRANCH  15  16
ENDBRANCH   5  15
BRANCH   8  24
ATOM     24  C   LIG    1        0.000   0.000   0.000  0.00  0.00    +0.140 C 
BRANCH  24  25
ATOM     25  C   LIG    1        0.000   0.000   0.000  0.00  0.00    +0.001 A 
ATOM     26  C   LIG    1        0.000   0.000   0.000  0.00  0.00    +0.001 A 
ATOM     27  C   LIG    1        0.000   0.000   0.000  0.00  0.00    +0.037 A 
ATOM     28  C   LIG    1        0.000   0.000   0.000  0.00  0.00    +0.139 A 
ATOM     29  C   LIG    1        0.000   0.000   0.000  0.00  0.00    +0.037 A 
ATOM     30  C   LIG    1        0.000   0.000   0.000  0.00  0.00    +0.001 A 
BRANCH  28  31
ATOM     31  O   LIG    1        0.000   0.000   0.000  0.00  0.00    -0.471 OA
ATOM     32  C   LIG    1        0.000   0.000   0.000  0.00  0.00    +0.252 C 
ENDBRANCH  28  31
ENDBRANCH  24  25
ENDBRANCH   8  24
TORSDOF 6
ENDMDL
MODEL       20
REMARK  Name = 
REMARK                            x       y       z     vdW  Elec       q    Type
REMARK                         _______ _______ _______ _____ _____    ______ ____
ROOT
ATOM      1  N   LIG    1        0.000   0.000   0.000  0.00  0.00    -0.245 N 
ATOM      2  N   LIG    1        0.000   0.000   0.000  0.00  0.00    -0.172 NA
ATOM      3  C   LIG    1        0.000   0.000   0.000  0.00  0.00    +0.096 A 
ATOM      4  C   LIG    1        0.000   0.000   0.000  0.00  0.00    +0.101 A 
ATOM      5  N   LIG    1        0.000   0.000   0.000  0.00  0.00    -0.274 N 
ATOM      6  C   LIG    1        0.000   0.000   0.000  0.00  0.00    +0.334 A 
ATOM      7  O   LIG    1        0.000   0.000   0.000  0.00  0.00    -0.246 OA
ATOM      8  N   LIG    1        0.000   0.000   0.000  0.00  0.00    -0.247 N 
ATOM      9  C   LIG    1        0.000   0.000   0.000  0.00  0.00    +0.283 A 
ATOM     10  O   LIG    1        0.000   0.000   0.000  0.00  0.00    -0.265 OA
ATOM     11  C   LIG    1        0.000   0.000   0.000  0.00  0.00    +0.056 C 
ATOM     12  C   LIG    1        0.000   0.000   0.000  0.00  0.00    +0.151 A 
ENDROOT
BRANCH   1  14
ATOM     13  C   LIG    1        0.000   0.000   0.000  0.00  0.00    +0.028 C 
ATOM     14  C   LIG    1        0.000   0.000   0.000  0.00  0.00    +0.128 C 
ENDBRANCH   1  14
BRANCH   5  15
ATOM     15  C   LIG    1        0.000   0.000   0.000  0.00  0.00    +0.137 C 
BRANCH  15  16
ATOM     16  C   LIG    1        0.000   0.000   0.000  0.00  0.00    +0.000 A 
ATOM     17  C   LIG    1        0.000   0.000   0.000  0.00  0.00    -0.002 A 
ATOM     18  C   LIG    1        0.000   0.000   0.000  0.00  0.00    -0.000 A 
ATOM     19  C   LIG    1        0.000   0.000   0.000  0.00  0.00    +0.004 A 
ATOM     20  C   LIG    1        0.000   0.000   0.000  0.00  0.00    +0.071 A 
ATOM     21  C   LIG    1        0.000   0.000   0.000  0.00  0.00    +0.001 A 
BRANCH  20  22
ATOM     22  C   LIG    1        0.000   0.000   0.000  0.00  0.00    +0.419 C 
ATOM     23  F   LIG    1        0.000   0.000   0.000  0.00  0.00    -0.166 F 
ATOM     24  F   LIG    1        0.000   0.000   0.000  0.00  0.00    -0.166 F 
ATOM     25  F   LIG    1        0.000   0.000   0.000  0.00  0.00    -0.166 F 
ENDBRANCH  20  22
ENDBRANCH  15  16
ENDBRANCH   5  15
BRANCH   8  26
ATOM     26  C   LIG    1        0.000   0.000   0.000  0.00  0.00    +0.118 C 
BRANCH  26  27
ATOM     27  C   LIG    1        0.000   0.000   0.000  0.00  0.00    +0.051 C 
BRANCH  27  28
ATOM     28  C   LIG    1        0.000   0.000   0.000  0.00  0.00    -0.020 A 
ATOM     29  C   LIG    1        0.000   0.000   0.000  0.00  0.00    -0.004 A 
ATOM     30  C   LIG    1        0.000   0.000   0.000  0.00  0.00    -0.000 A 
ATOM     31  C   LIG    1        0.000   0.000   0.000  0.00  0.00    -0.000 A 
ATOM     32  C   LIG    1        0.000   0.000   0.000  0.00  0.00    -0.000 A 
ATOM     33  C   LIG    1        0.000   0.000   0.000  0.00  0.00    -0.004 A 
ENDBRANCH  27  28
ENDBRANCH  26  27
ENDBRANCH   8  26
TORSDOF 7
ENDMDL
MODEL       21
REMARK  Name = 
REMARK                            x       y       z     vdW  Elec       q    Type
REMARK                         _______ _______ _______ _____ _____    ______ ____
ROOT
ATOM      1  N   LIG    1        0.000   0.000   0.000  0.00  0.00    -0.243 N 
ATOM      2  C   LIG    1        0.000   0.000   0.000  0.00  0.00    +0.285 A 
ATOM      3  C   LIG    1        0.000   0.000   0.000  0.00  0.00    +0.172 A 
ATOM      4  N   LIG    1        0.000   0.000   0.000  0.00  0.00    -0.234 NA
ATOM      5  C   LIG    1        0.000   0.000   0.000  0.00  0.00    +0.120 A 
ATOM      6  C   LIG    1        0.000   0.000   0.000  0.00  0.00    +0.121 A 
ATOM      7  N   LIG    1        0.000   0.000   0.000  0.00  0.00    -0.223 NA
ATOM      8  C   LIG    1        0.000   0.000   0.000  0.00  0.00    +0.170 A 
ATOM      9  N   LIG    1        0.000   0.000   0.000  0.00  0.00    -0.261 N 
ATOM     10  O   LIG    1        0.000   0.000   0.000  0.00  0.00    -0.265 OA
ATOM     11  C   LIG    1        0.000   0.000   0.000  0.00  0.00    +0.335 A 
ATOM     12  O   LIG    1        0.000   0.000   0.000  0.00  0.00    -0.246 OA
ENDROOT
BRANCH   1  13
ATOM     13  C   LIG    1        0.000   0.000   0.000  0.00  0.00    +0.140 C 
BRANCH  13  17
ATOM     14  C   LIG    1        0.000   0.000   0.000  0.00  0.00    +0.139 A 
ATOM     15  C   LIG    1        0.000   0.000   0.000  0.00  0.00    +0.037 A 
ATOM     16  C   LIG    1        0.000   0.000   0.000  0.00  0.00    +0.001 A 
ATOM     17  C   LIG    1        0.000   0.000   0.000  0.00  0.00    +0.001 A 
ATOM     18  C   LIG    1        0.000   0.000   0.000  0.00  0.00    +0.001 A 
ATOM     19  C   LIG    1        0.000   0.000   0.000  0.00  0.00    +0.037 A 
BRANCH  14  21
ATOM     20  C   LIG    1        0.000   0.000   0.000  0.00  0.00    +0.252 C 
ATOM     21  O   LIG    1        0.000   0.000   0.000  0.00  0.00    -0.471 OA
ENDBRANCH  14  21
ENDBRANCH  13  17
ENDBRANCH   1  13
BRANCH   9  22
ATOM     22  C   LIG    1        0.000   0.000   0.000  0.00  0.00    +0.139 C 
BRANCH  22  23
ATOM     23  C   LIG    1        0.000   0.000   0.000  0.00  0.00    +0.001 A 
ATOM     24  C   LIG    1        0.000   0.000   0.000  0.00  0.00    -0.002 A 
ATOM     25  C   LIG    1        0.000   0.000   0.000  0.00  0.00    -0.000 A 
ATOM     26  C   LIG    1        0.000   0.000   0.000  0.00  0.00    +0.004 A 
ATOM     27  C   LIG    1        0.000   0.000   0.000  0.00  0.00    +0.071 A 
ATOM     28  C   LIG    1        0.000   0.000   0.000  0.00  0.00    +0.001 A 
BRANCH  27  29
ATOM     29  C   LIG    1        0.000   0.000   0.000  0.00  0.00    +0.419 C 
ATOM     30  F   LIG    1        0.000   0.000   0.000  0.00  0.00    -0.166 F 
ATOM     31  F   LIG    1        0.000   0.000   0.000  0.00  0.00    -0.166 F 
ATOM     32  F   LIG    1        0.000   0.000   0.000  0.00  0.00    -0.166 F 
ENDBRANCH  27  29
ENDBRANCH  22  23
ENDBRANCH   9  22
TORSDOF 6
ENDMDL
MODEL       22
REMARK  Name = 
REMARK                            x       y       z     vdW  Elec       q    Type
REMARK                         _______ _______ _______ _____ _____    ______ ____
ROOT
ATOM      1  N   LIG    1        0.000   0.000   0.000  0.00  0.00    -0.243 N 
ATOM      2  C   LIG    1        0.000   0.000   0.000  0.00  0.00    +0.285 A 
ATOM      3  C   LIG    1        0.000   0.000   0.000  0.00  0.00    +0.172 A 
ATOM      4  N   LIG    1        0.000   0.000   0.000  0.00  0.00    -0.234 NA
ATOM      5  C   LIG    1        0.000   0.000   0.000  0.00  0.00    +0.120 A 
ATOM      6  C   LIG    1        0.000   0.000   0.000  0.00  0.00    +0.121 A 
ATOM      7  N   LIG    1        0.000   0.000   0.000  0.00  0.00    -0.223 NA
ATOM      8  C   LIG    1        0.000   0.000   0.000  0.00  0.00    +0.170 A 
ATOM      9  N   LIG    1        0.000   0.000   0.000  0.00  0.00    -0.261 N 
ATOM     10  O   LIG    1        0.000   0.000   0.000  0.00  0.00    -0.265 OA
ATOM     11  C   LIG    1        0.000   0.000   0.000  0.00  0.00    +0.335 A 
ATOM     12  O   LIG    1        0.000   0.000   0.000  0.00  0.00    -0.246 OA
ENDROOT
BRANCH   1  13
ATOM     13  C   LIG    1        0.000   0.000   0.000  0.00  0.00    +0.140 C 
BRANCH  13  17
ATOM     14  C   LIG    1        0.000   0.000   0.000  0.00  0.00    +0.139 A 
ATOM     15  C   LIG    1        0.000   0.000   0.000  0.00  0.00    +0.037 A 
ATOM     16  C   LIG    1        0.000   0.000   0.000  0.00  0.00    +0.001 A 
ATOM     17  C   LIG    1        0.000   0.000   0.000  0.00  0.00    +0.001 A 
ATOM     18  C   LIG    1        0.000   0.000   0.000  0.00  0.00    +0.001 A 
ATOM     19  C   LIG    1        0.000   0.000   0.000  0.00  0.00    +0.037 A 
BRANCH  14  21
ATOM     20  C   LIG    1        0.000   0.000   0.000  0.00  0.00    +0.252 C 
ATOM     21  O   LIG    1        0.000   0.000   0.000  0.00  0.00    -0.471 OA
ENDBRANCH  14  21
ENDBRANCH  13  17
ENDBRANCH   1  13
BRANCH   9  22
ATOM     22  C   LIG    1        0.000   0.000   0.000  0.00  0.00    +0.139 C 
BRANCH  22  23
ATOM     23  C   LIG    1        0.000   0.000   0.000  0.00  0.00    +0.000 A 
ATOM     24  C   LIG    1        0.000   0.000   0.000  0.00  0.00    -0.002 A 
ATOM     25  C   LIG    1        0.000   0.000   0.000  0.00  0.00    -0.001 A 
ATOM     26  C   LIG    1        0.000   0.000   0.000  0.00  0.00    -0.004 A 
ATOM     27  C   LIG    1        0.000   0.000   0.000  0.00  0.00    -0.022 A 
ATOM     28  C   LIG    1        0.000   0.000   0.000  0.00  0.00    +0.031 C 
ATOM     29  C   LIG    1        0.000   0.000   0.000  0.00  0.00    -0.007 A 
ENDBRANCH  22  23
ENDBRANCH   9  22
TORSDOF 5
ENDMDL
MODEL       23
REMARK  Name = 
REMARK                            x       y       z     vdW  Elec       q    Type
REMARK                         _______ _______ _______ _____ _____    ______ ____
ROOT
ATOM      1  N   LIG    1        0.000   0.000   0.000  0.00  0.00    -0.243 N 
ATOM      2  C   LIG    1        0.000   0.000   0.000  0.00  0.00    +0.285 A 
ATOM      3  C   LIG    1        0.000   0.000   0.000  0.00  0.00    +0.172 A 
ATOM      4  N   LIG    1        0.000   0.000   0.000  0.00  0.00    -0.234 NA
ATOM      5  C   LIG    1        0.000   0.000   0.000  0.00  0.00    +0.120 A 
ATOM      6  C   LIG    1        0.000   0.000   0.000  0.00  0.00    +0.121 A 
ATOM      7  N   LIG    1        0.000   0.000   0.000  0.00  0.00    -0.223 NA
ATOM      8  C   LIG    1        0.000   0.000   0.000  0.00  0.00    +0.170 A 
ATOM      9  N   LIG    1        0.000   0.000   0.000  0.00  0.00    -0.261 N 
ATOM     10  O   LIG    1        0.000   0.000   0.000  0.00  0.00    -0.265 OA
ATOM     11  C   LIG    1        0.000   0.000   0.000  0.00  0.00    +0.335 A 
ATOM     12  O   LIG    1        0.000   0.000   0.000  0.00  0.00    -0.246 OA
ENDROOT
BRANCH   1  13
ATOM     13  C   LIG    1        0.000   0.000   0.000  0.00  0.00    +0.140 C 
BRANCH  13  17
ATOM     14  C   LIG    1        0.000   0.000   0.000  0.00  0.00    +0.139 A 
ATOM     15  C   LIG    1        0.000   0.000   0.000  0.00  0.00    +0.037 A 
ATOM     16  C   LIG    1        0.000   0.000   0.000  0.00  0.00    +0.001 A 
ATOM     17  C   LIG    1        0.000   0.000   0.000  0.00  0.00    +0.001 A 
ATOM     18  C   LIG    1        0.000   0.000   0.000  0.00  0.00    +0.001 A 
ATOM     19  C   LIG    1        0.000   0.000   0.000  0.00  0.00    +0.037 A 
BRANCH  14  21
ATOM     20  C   LIG    1        0.000   0.000   0.000  0.00  0.00    +0.252 C 
ATOM     21  O   LIG    1        0.000   0.000   0.000  0.00  0.00    -0.471 OA
ENDBRANCH  14  21
ENDBRANCH  13  17
ENDBRANCH   1  13
BRANCH   9  22
ATOM     22  C   LIG    1        0.000   0.000   0.000  0.00  0.00    +0.139 C 
BRANCH  22  23
ATOM     23  C   LIG    1        0.000   0.000   0.000  0.00  0.00    +0.001 A 
ATOM     24  C   LIG    1        0.000   0.000   0.000  0.00  0.00    -0.000 A 
ATOM     25  C   LIG    1        0.000   0.000   0.000  0.00  0.00    +0.029 A 
ATOM     26  C   LIG    1        0.000   0.000   0.000  0.00  0.00    +0.140 A 
ATOM     27  C   LIG    1        0.000   0.000   0.000  0.00  0.00    +0.029 A 
ATOM     28  F   LIG    1        0.000   0.000   0.000  0.00  0.00    -0.204 F 
ATOM     29  C   LIG    1        0.000   0.000   0.000  0.00  0.00    -0.000 A 
ENDBRANCH  22  23
ENDBRANCH   9  22
TORSDOF 5
ENDMDL
MODEL       24
REMARK  Name = 
REMARK                            x       y       z     vdW  Elec       q    Type
REMARK                         _______ _______ _______ _____ _____    ______ ____
ROOT
ATOM      1  N   LIG    1        0.000   0.000   0.000  0.00  0.00    -0.245 N 
ATOM      2  N   LIG    1        0.000   0.000   0.000  0.00  0.00    -0.172 NA
ATOM      3  C   LIG    1        0.000   0.000   0.000  0.00  0.00    +0.096 A 
ATOM      4  C   LIG    1        0.000   0.000   0.000  0.00  0.00    +0.101 A 
ATOM      5  N   LIG    1        0.000   0.000   0.000  0.00  0.00    -0.269 N 
ATOM      6  C   LIG    1        0.000   0.000   0.000  0.00  0.00    +0.335 A 
ATOM      7  O   LIG    1        0.000   0.000   0.000  0.00  0.00    -0.246 OA
ATOM      8  N   LIG    1        0.000   0.000   0.000  0.00  0.00    -0.243 N 
ATOM      9  C   LIG    1        0.000   0.000   0.000  0.00  0.00    +0.283 A 
ATOM     10  O   LIG    1        0.000   0.000   0.000  0.00  0.00    -0.265 OA
ATOM     11  C   LIG    1        0.000   0.000   0.000  0.00  0.00    +0.056 C 
ATOM     12  C   LIG    1        0.000   0.000   0.000  0.00  0.00    +0.151 A 
ENDROOT
BRANCH   1  14
ATOM     13  C   LIG    1        0.000   0.000   0.000  0.00  0.00    +0.028 C 
ATOM     14  C   LIG    1        0.000   0.000   0.000  0.00  0.00    +0.128 C 
ENDBRANCH   1  14
BRANCH   5  15
ATOM     15  C   LIG    1        0.000   0.000   0.000  0.00  0.00    +0.197 C 
BRANCH  15  16
ATOM     16  C   LIG    1        0.000   0.000   0.000  0.00  0.00    +0.265 C 
ATOM     17  N   LIG    1        0.000   0.000   0.000  0.00  0.00    -0.206 NA
ATOM     18  O   LIG    1        0.000   0.000   0.000  0.00  0.00    -0.271 OA
BRANCH  17  19
ATOM     19  C   LIG    1        0.000   0.000   0.000  0.00  0.00    +0.095 C 
ATOM     20  C   LIG    1        0.000   0.000   0.000  0.00  0.00    +0.022 C 
ATOM     21  C   LIG    1        0.000   0.000   0.000  0.00  0.00    +0.002 C 
ATOM     22  C   LIG    1        0.000   0.000   0.000  0.00  0.00    +0.002 C 
ATOM     23  C   LIG    1        0.000   0.000   0.000  0.00  0.00    +0.022 C 
ENDBRANCH  17  19
ENDBRANCH  15  16
ENDBRANCH   5  15
BRANCH   8  24
ATOM     24  C   LIG    1        0.000   0.000   0.000  0.00  0.00    +0.140 C 
BRANCH  24  25
ATOM     25  C   LIG    1        0.000   0.000   0.000  0.00  0.00    +0.001 A 
ATOM     26  C   LIG    1        0.000   0.000   0.000  0.00  0.00    +0.001 A 
ATOM     27  C   LIG    1        0.000   0.000   0.000  0.00  0.00    +0.037 A 
ATOM     28  C   LIG    1        0.000   0.000   0.000  0.00  0.00    +0.139 A 
ATOM     29  C   LIG    1        0.000   0.000   0.000  0.00  0.00    +0.037 A 
ATOM     30  C   LIG    1        0.000   0.000   0.000  0.00  0.00    +0.001 A 
BRANCH  28  31
ATOM     31  O   LIG    1        0.000   0.000   0.000  0.00  0.00    -0.471 OA
ATOM     32  C   LIG    1        0.000   0.000   0.000  0.00  0.00    +0.252 C 
ENDBRANCH  28  31
ENDBRANCH  24  25
ENDBRANCH   8  24
TORSDOF 7
ENDMDL
MODEL       25
REMARK  Name = 
REMARK                            x       y       z     vdW  Elec       q    Type
REMARK                         _______ _______ _______ _____ _____    ______ ____
ROOT
ATOM      1  N   LIG    1        0.000   0.000   0.000  0.00  0.00    -0.243 N 
ATOM      2  C   LIG    1        0.000   0.000   0.000  0.00  0.00    +0.285 A 
ATOM      3  C   LIG    1        0.000   0.000   0.000  0.00  0.00    +0.172 A 
ATOM      4  N   LIG    1        0.000   0.000   0.000  0.00  0.00    -0.234 NA
ATOM      5  C   LIG    1        0.000   0.000   0.000  0.00  0.00    +0.120 A 
ATOM      6  C   LIG    1        0.000   0.000   0.000  0.00  0.00    +0.121 A 
ATOM      7  N   LIG    1        0.000   0.000   0.000  0.00  0.00    -0.223 NA
ATOM      8  C   LIG    1        0.000   0.000   0.000  0.00  0.00    +0.170 A 
ATOM      9  N   LIG    1        0.000   0.000   0.000  0.00  0.00    -0.261 N 
ATOM     10  O   LIG    1        0.000   0.000   0.000  0.00  0.00    -0.265 OA
ATOM     11  C   LIG    1        0.000   0.000   0.000  0.00  0.00    +0.335 A 
ATOM     12  O   LIG    1        0.000   0.000   0.000  0.00  0.00    -0.246 OA
ENDROOT
BRANCH   1  13
ATOM     13  C   LIG    1        0.000   0.000   0.000  0.00  0.00    +0.140 C 
BRANCH  13  17
ATOM     14  C   LIG    1        0.000   0.000   0.000  0.00  0.00    +0.139 A 
ATOM     15  C   LIG    1        0.000   0.000   0.000  0.00  0.00    +0.037 A 
ATOM     16  C   LIG    1        0.000   0.000   0.000  0.00  0.00    +0.001 A 
ATOM     17  C   LIG    1        0.000   0.000   0.000  0.00  0.00    +0.001 A 
ATOM     18  C   LIG    1        0.000   0.000   0.000  0.00  0.00    +0.001 A 
ATOM     19  C   LIG    1        0.000   0.000   0.000  0.00  0.00    +0.037 A 
BRANCH  14  21
ATOM     20  C   LIG    1        0.000   0.000   0.000  0.00  0.00    +0.252 C 
ATOM     21  O   LIG    1        0.000   0.000   0.000  0.00  0.00    -0.471 OA
ENDBRANCH  14  21
ENDBRANCH  13  17
ENDBRANCH   1  13
BRANCH   9  22
ATOM     22  C   LIG    1        0.000   0.000   0.000  0.00  0.00    +0.139 C 
BRANCH  22  23
ATOM     23  C   LIG    1        0.000   0.000   0.000  0.00  0.00    +0.001 A 
ATOM     24  C   LIG    1        0.000   0.000   0.000  0.00  0.00    -0.002 A 
ATOM     25  C   LIG    1        0.000   0.000   0.000  0.00  0.00    +0.011 A 
ATOM     26  C   LIG    1        0.000   0.000   0.000  0.00  0.00    +0.058 A 
ATOM     27  C   LIG    1        0.000   0.000   0.000  0.00  0.00    +0.011 A 
ATOM     28 CL   LIG    1        0.000   0.000   0.000  0.00  0.00    -0.082 Cl
ATOM     29  C   LIG    1        0.000   0.000   0.000  0.00  0.00    -0.002 A 
ENDBRANCH  22  23
ENDBRANCH   9  22
TORSDOF 5
ENDMDL
MODEL       26
REMARK  Name = 
REMARK                            x       y       z     vdW  Elec       q    Type
REMARK                         _______ _______ _______ _____ _____    ______ ____
ROOT
ATOM      1  C   LIG    1        0.000   0.000   0.000  0.00  0.00    +0.119 C 
ENDROOT
BRANCH   1   2
ATOM      2  C   LIG    1        0.000   0.000   0.000  0.00  0.00    +0.050 C 
BRANCH   2   6
ATOM      3  C   LIG    1        0.000   0.000   0.000  0.00  0.00    +0.172 A 
ATOM      4  C   LIG    1        0.000   0.000   0.000  0.00  0.00    +0.040 A 
ATOM      5  C   LIG    1        0.000   0.000   0.000  0.00  0.00    -0.001 A 
ATOM      6  C   LIG    1        0.000   0.000   0.000  0.00  0.00    -0.017 A 
ATOM      7  C   LIG    1        0.000   0.000   0.000  0.00  0.00    +0.036 A 
ATOM      8  C   LIG    1        0.000   0.000   0.000  0.00  0.00    +0.172 A 
BRANCH   3  10
ATOM      9  C   LIG    1        0.000   0.000   0.000  0.00  0.00    +0.253 C 
ATOM     10  O   LIG    1        0.000   0.000   0.000  0.00  0.00    -0.468 OA
ENDBRANCH   3  10
BRANCH   8  11
ATOM     11  O   LIG    1        0.000   0.000   0.000  0.00  0.00    -0.468 OA
ATOM     12  C   LIG    1        0.000   0.000   0.000  0.00  0.00    +0.253 C 
ENDBRANCH   8  11
ENDBRANCH   2   6
ENDBRANCH   1   2
BRANCH   1  13
ATOM     13  N   LIG    1        0.000   0.000   0.000  0.00  0.00    -0.220 NA
BRANCH  13  14
ATOM     14  C   LIG    1        0.000   0.000   0.000  0.00  0.00    +0.154 A 
ATOM     15  N   LIG    1        0.000   0.000   0.000  0.00  0.00    -0.207 NA
ATOM     16  C   LIG    1        0.000   0.000   0.000  0.00  0.00    +0.201 A 
ATOM     17  N   LIG    1        0.000   0.000   0.000  0.00  0.00    -0.205 NA
ATOM     18  C   LIG    1        0.000   0.000   0.000  0.00  0.00    +0.165 A 
ATOM     19  N   LIG    1        0.000   0.000   0.000  0.00  0.00    -0.232 N 
ATOM     20  C   LIG    1        0.000   0.000   0.000  0.00  0.00    +0.155 C 
ATOM     21  N   LIG    1        0.000   0.000   0.000  0.00  0.00    -0.166 NA
ATOM     22  C   LIG    1        0.000   0.000   0.000  0.00  0.00    +0.126 A 
ATOM     23  C   LIG    1        0.000   0.000   0.000  0.00  0.00    +0.089 A 
ENDBRANCH  13  14
ENDBRANCH   1  13
TORSDOF 6
ENDMDL
MODEL       27
REMARK  Name = 
REMARK                            x       y       z     vdW  Elec       q    Type
REMARK                         _______ _______ _______ _____ _____    ______ ____
ROOT
ATOM      1  N   LIG    1        0.000   0.000   0.000  0.00  0.00    -0.245 N 
ATOM      2  N   LIG    1        0.000   0.000   0.000  0.00  0.00    -0.172 NA
ATOM      3  C   LIG    1        0.000   0.000   0.000  0.00  0.00    +0.096 A 
ATOM      4  C   LIG    1        0.000   0.000   0.000  0.00  0.00    +0.101 A 
ATOM      5  N   LIG    1        0.000   0.000   0.000  0.00  0.00    -0.274 N 
ATOM      6  C   LIG    1        0.000   0.000   0.000  0.00  0.00    +0.334 A 
ATOM      7  O   LIG    1        0.000   0.000   0.000  0.00  0.00    -0.246 OA
ATOM      8  N   LIG    1        0.000   0.000   0.000  0.00  0.00    -0.243 N 
ATOM      9  C   LIG    1        0.000   0.000   0.000  0.00  0.00    +0.283 A 
ATOM     10  O   LIG    1        0.000   0.000   0.000  0.00  0.00    -0.265 OA
ATOM     11  C   LIG    1        0.000   0.000   0.000  0.00  0.00    +0.056 C 
ATOM     12  C   LIG    1        0.000   0.000   0.000  0.00  0.00    +0.151 A 
ENDROOT
BRANCH   1  14
ATOM     13  C   LIG    1        0.000   0.000   0.000  0.00  0.00    +0.028 C 
ATOM     14  C   LIG    1        0.000   0.000   0.000  0.00  0.00    +0.128 C 
ENDBRANCH   1  14
BRANCH   5  15
ATOM     15  C   LIG    1        0.000   0.000   0.000  0.00  0.00    +0.137 C 
BRANCH  15  16
ATOM     16  C   LIG    1        0.000   0.000   0.000  0.00  0.00    +0.000 A 
ATOM     17  C   LIG    1        0.000   0.000   0.000  0.00  0.00    -0.002 A 
ATOM     18  C   LIG    1        0.000   0.000   0.000  0.00  0.00    -0.001 A 
ATOM     19  C   LIG    1        0.000   0.000   0.000  0.00  0.00    -0.004 A 
ATOM     20  C   LIG    1        0.000   0.000   0.000  0.00  0.00    -0.022 A 
ATOM     21  C   LIG    1        0.000   0.000   0.000  0.00  0.00    +0.031 C 
ATOM     22  C   LIG    1        0.000   0.000   0.000  0.00  0.00    -0.007 A 
ENDBRANCH  15  16
ENDBRANCH   5  15
BRANCH   8  23
ATOM     23  C   LIG    1        0.000   0.000   0.000  0.00  0.00    +0.140 C 
BRANCH  23  24
ATOM     24  C   LIG    1        0.000   0.000   0.000  0.00  0.00    +0.001 A 
ATOM     25  C   LIG    1        0.000   0.000   0.000  0.00  0.00    -0.000 A 
ATOM     26  C   LIG    1        0.000   0.000   0.000  0.00  0.00    +0.029 A 
ATOM     27  C   LIG    1        0.000   0.000   0.000  0.00  0.00    +0.140 A 
ATOM     28  C   LIG    1        0.000   0.000   0.000  0.00  0.00    +0.029 A 
ATOM     29  F   LIG    1        0.000   0.000   0.000  0.00  0.00    -0.204 F 
ATOM     30  C   LIG    1        0.000   0.000   0.000  0.00  0.00    -0.000 A 
ENDBRANCH  23  24
ENDBRANCH   8  23
TORSDOF 5
ENDMDL
MODEL       28
REMARK  Name = 
REMARK                            x       y       z     vdW  Elec       q    Type
REMARK                         _______ _______ _______ _____ _____    ______ ____
ROOT
ATOM      1  N   LIG    1        0.000   0.000   0.000  0.00  0.00    -0.256 N 
ATOM      2  C   LIG    1        0.000   0.000   0.000  0.00  0.00    +0.336 A 
ATOM      3  N   LIG    1        0.000   0.000   0.000  0.00  0.00    -0.243 N 
ATOM      4  C   LIG    1        0.000   0.000   0.000  0.00  0.00    +0.285 A 
ATOM      5  C   LIG    1        0.000   0.000   0.000  0.00  0.00    +0.172 A 
ATOM      6  N   LIG    1        0.000   0.000   0.000  0.00  0.00    -0.234 NA
ATOM      7  C   LIG    1        0.000   0.000   0.000  0.00  0.00    +0.120 A 
ATOM      8  C   LIG    1        0.000   0.000   0.000  0.00  0.00    +0.121 A 
ATOM      9  N   LIG    1        0.000   0.000   0.000  0.00  0.00    -0.223 NA
ATOM     10  O   LIG    1        0.000   0.000   0.000  0.00  0.00    -0.265 OA
ATOM     11  O   LIG    1        0.000   0.000   0.000  0.00  0.00    -0.246 OA
ATOM     12  C   LIG    1        0.000   0.000   0.000  0.00  0.00    +0.170 A 
ENDROOT
BRANCH   1  13
ATOM     13  C   LIG    1        0.000   0.000   0.000  0.00  0.00    +0.199 C 
BRANCH  13  15
ATOM     14  N   LIG    1        0.000   0.000   0.000  0.00  0.00    -0.206 NA
ATOM     15  C   LIG    1        0.000   0.000   0.000  0.00  0.00    +0.265 C 
ATOM     16  O   LIG    1        0.000   0.000   0.000  0.00  0.00    -0.271 OA
BRANCH  14  17
ATOM     17  C   LIG    1        0.000   0.000   0.000  0.00  0.00    +0.095 C 
ATOM     18  C   LIG    1        0.000   0.000   0.000  0.00  0.00    +0.023 C 
BRANCH  17  20
ATOM     19  C   LIG    1        0.000   0.000   0.000  0.00  0.00    +0.002 C 
ATOM     20  C   LIG    1        0.000   0.000   0.000  0.00  0.00    +0.022 C 
ENDBRANCH  17  20
ENDBRANCH  14  17
ENDBRANCH  13  15
ENDBRANCH   1  13
BRANCH   3  21
ATOM     21  C   LIG    1        0.000   0.000   0.000  0.00  0.00    +0.140 C 
BRANCH  21  22
ATOM     22  C   LIG    1        0.000   0.000   0.000  0.00  0.00    +0.001 A 
ATOM     23  C   LIG    1        0.000   0.000   0.000  0.00  0.00    +0.001 A 
ATOM     24  C   LIG    1        0.000   0.000   0.000  0.00  0.00    +0.037 A 
ATOM     25  C   LIG    1        0.000   0.000   0.000  0.00  0.00    +0.139 A 
ATOM     26  C   LIG    1        0.000   0.000   0.000  0.00  0.00    +0.037 A 
ATOM     27  C   LIG    1        0.000   0.000   0.000  0.00  0.00    +0.001 A 
BRANCH  25  28
ATOM     28  O   LIG    1        0.000   0.000   0.000  0.00  0.00    -0.471 OA
ATOM     29  C   LIG    1        0.000   0.000   0.000  0.00  0.00    +0.252 C 
ENDBRANCH  25  28
ENDBRANCH  21  22
ENDBRANCH   3  21
TORSDOF 7
ENDMDL
MODEL       29
REMARK  Name = 
REMARK                            x       y       z     vdW  Elec       q    Type
REMARK                         _______ _______ _______ _____ _____    ______ ____
ROOT
ATOM      1  N   LIG    1        0.000   0.000   0.000  0.00  0.00    -0.245 N 
ATOM      2  N   LIG    1        0.000   0.000   0.000  0.00  0.00    -0.172 NA
ATOM      3  C   LIG    1        0.000   0.000   0.000  0.00  0.00    +0.096 A 
ATOM      4  C   LIG    1        0.000   0.000   0.000  0.00  0.00    +0.101 A 
ATOM      5  N   LIG    1        0.000   0.000   0.000  0.00  0.00    -0.269 N 
ATOM      6  C   LIG    1        0.000   0.000   0.000  0.00  0.00    +0.335 A 
ATOM      7  O   LIG    1        0.000   0.000   0.000  0.00  0.00    -0.246 OA
ATOM      8  N   LIG    1        0.000   0.000   0.000  0.00  0.00    -0.243 N 
ATOM      9  C   LIG    1        0.000   0.000   0.000  0.00  0.00    +0.283 A 
ATOM     10  O   LIG    1        0.000   0.000   0.000  0.00  0.00    -0.265 OA
ATOM     11  C   LIG    1        0.000   0.000   0.000  0.00  0.00    +0.056 C 
ATOM     12  C   LIG    1        0.000   0.000   0.000  0.00  0.00    +0.151 A 
ENDROOT
BRANCH   1  14
ATOM     13  C   LIG    1        0.000   0.000   0.000  0.00  0.00    +0.028 C 
ATOM     14  C   LIG    1        0.000   0.000   0.000  0.00  0.00    +0.128 C 
ENDBRANCH   1  14
BRANCH   5  15
ATOM     15  C   LIG    1        0.000   0.000   0.000  0.00  0.00    +0.197 C 
BRANCH  15  16
ATOM     16  C   LIG    1        0.000   0.000   0.000  0.00  0.00    +0.265 C 
ATOM     17  N   LIG    1        0.000   0.000   0.000  0.00  0.00    -0.199 NA
ATOM     18  O   LIG    1        0.000   0.000   0.000  0.00  0.00    -0.271 OA
BRANCH  17  19
ATOM     19  C   LIG    1        0.000   0.000   0.000  0.00  0.00    +0.145 C 
BRANCH  19  20
ATOM     20  C   LIG    1        0.000   0.000   0.000  0.00  0.00    +0.036 A 
ATOM     21  C   LIG    1        0.000   0.000   0.000  0.00  0.00    +0.001 A 
ATOM     22  C   LIG    1        0.000   0.000   0.000  0.00  0.00    +0.003 A 
ATOM     23  C   LIG    1        0.000   0.000   0.000  0.00  0.00    +0.040 A 
ATOM     24  C   LIG    1        0.000   0.000   0.000  0.00  0.00    +0.172 A 
ATOM     25  C   LIG    1        0.000   0.000   0.000  0.00  0.00    +0.170 A 
BRANCH  24  26
ATOM     26  O   LIG    1        0.000   0.000   0.000  0.00  0.00    -0.468 OA
ATOM     27  C   LIG    1        0.000   0.000   0.000  0.00  0.00    +0.253 C 
ENDBRANCH  24  26
BRANCH  25  28
ATOM     28  O   LIG    1        0.000   0.000   0.000  0.00  0.00    -0.469 OA
ATOM     29  C   LIG    1        0.000   0.000   0.000  0.00  0.00    +0.253 C 
ENDBRANCH  25  28
ENDBRANCH  19  20
ENDBRANCH  17  19
ENDBRANCH  15  16
ENDBRANCH   5  15
BRANCH   8  30
ATOM     30  C   LIG    1        0.000   0.000   0.000  0.00  0.00    +0.140 C 
BRANCH  30  31
ATOM     31  C   LIG    1        0.000   0.000   0.000  0.00  0.00    +0.001 A 
ATOM     32  C   LIG    1        0.000   0.000   0.000  0.00  0.00    -0.002 A 
ATOM     33  C   LIG    1        0.000   0.000   0.000  0.00  0.00    -0.000 A 
ATOM     34  C   LIG    1        0.000   0.000   0.000  0.00  0.00    -0.000 A 
ATOM     35  C   LIG    1        0.000   0.000   0.000  0.00  0.00    -0.000 A 
ATOM     36  C   LIG    1        0.000   0.000   0.000  0.00  0.00    -0.002 A 
ENDBRANCH  30  31
ENDBRANCH   8  30
TORSDOF 9
ENDMDL
MODEL       30
REMARK  Name = 
REMARK                            x       y       z     vdW  Elec       q    Type
REMARK                         _______ _______ _______ _____ _____    ______ ____
ROOT
ATOM      1  C   LIG    1        0.000   0.000   0.000  0.00  0.00    +0.132 A 
ATOM      2  C   LIG    1        0.000   0.000   0.000  0.00  0.00    +0.087 A 
ATOM      3  N   LIG    1        0.000   0.000   0.000  0.00  0.00    -0.303 N 
ATOM      4  C   LIG    1        0.000   0.000   0.000  0.00  0.00    +0.147 A 
ATOM      5  N   LIG    1        0.000   0.000   0.000  0.00  0.00    -0.232 NA
ATOM      6  C   LIG    1        0.000   0.000   0.000  0.00  0.00    +0.061 A 
ATOM      7  C   LIG    1        0.000   0.000   0.000  0.00  0.00    +0.015 A 
ATOM      8  C   LIG    1        0.000   0.000   0.000  0.00  0.00    +0.007 A 
ATOM      9  C   LIG    1        0.000   0.000   0.000  0.00  0.00    +0.052 C 
ATOM     10  C   LIG    1        0.000   0.000   0.000  0.00  0.00    +0.073 A 
ATOM     11  C   LIG    1        0.000   0.000   0.000  0.00  0.00    +0.206 A 
ATOM     12  O   LIG    1        0.000   0.000   0.000  0.00  0.00    -0.286 OA
ENDROOT
BRANCH   1  13
ATOM     13  C   LIG    1        0.000   0.000   0.000  0.00  0.00    +0.346 C 
ATOM     14  O   LIG    1        0.000   0.000   0.000  0.00  0.00    -0.245 OA
BRANCH  13  15
ATOM     15  O   LIG    1        0.000   0.000   0.000  0.00  0.00    -0.445 OA
BRANCH  15  17
ATOM     16  C   LIG    1        0.000   0.000   0.000  0.00  0.00    +0.051 C 
ATOM     17  C   LIG    1        0.000   0.000   0.000  0.00  0.00    +0.209 C 
ENDBRANCH  15  17
ENDBRANCH  13  15
ENDBRANCH   1  13
BRANCH   3  18
ATOM     18  C   LIG    1        0.000   0.000   0.000  0.00  0.00    +0.195 C 
BRANCH  18  19
ATOM     19  C   LIG    1        0.000   0.000   0.000  0.00  0.00    +0.265 C 
ATOM     20  N   LIG    1        0.000   0.000   0.000  0.00  0.00    -0.203 NA
ATOM     21  O   LIG    1        0.000   0.000   0.000  0.00  0.00    -0.271 OA
BRANCH  20  22
ATOM     22  C   LIG    1        0.000   0.000   0.000  0.00  0.00    +0.120 C 
BRANCH  22  23
ATOM     23  C   LIG    1        0.000   0.000   0.000  0.00  0.00    +0.050 C 
BRANCH  23  24
ATOM     24  C   LIG    1        0.000   0.000   0.000  0.00  0.00    -0.017 A 
ATOM     25  C   LIG    1        0.000   0.000   0.000  0.00  0.00    -0.001 A 
ATOM     26  C   LIG    1        0.000   0.000   0.000  0.00  0.00    +0.040 A 
ATOM     27  C   LIG    1        0.000   0.000   0.000  0.00  0.00    +0.172 A 
ATOM     28  C   LIG    1        0.000   0.000   0.000  0.00  0.00    +0.172 A 
ATOM     29  C   LIG    1        0.000   0.000   0.000  0.00  0.00    +0.036 A 
BRANCH  28  30
ATOM     30  O   LIG    1        0.000   0.000   0.000  0.00  0.00    -0.468 OA
ATOM     31  C   LIG    1        0.000   0.000   0.000  0.00  0.00    +0.253 C 
ENDBRANCH  28  30
BRANCH  27  32
ATOM     32  O   LIG    1        0.000   0.000   0.000  0.00  0.00    -0.468 OA
ATOM     33  C   LIG    1        0.000   0.000   0.000  0.00  0.00    +0.253 C 
ENDBRANCH  27  32
ENDBRANCH  23  24
ENDBRANCH  22  23
ENDBRANCH  20  22
ENDBRANCH  18  19
ENDBRANCH   3  18
TORSDOF 10
ENDMDL
MODEL       31
REMARK  Name = 
REMARK                            x       y       z     vdW  Elec       q    Type
REMARK                         _______ _______ _______ _____ _____    ______ ____
ROOT
ATOM      1  N   LIG    1        0.000   0.000   0.000  0.00  0.00    -0.245 N 
ATOM      2  N   LIG    1        0.000   0.000   0.000  0.00  0.00    -0.172 NA
ATOM      3  C   LIG    1        0.000   0.000   0.000  0.00  0.00    +0.096 A 
ATOM      4  C   LIG    1        0.000   0.000   0.000  0.00  0.00    +0.101 A 
ATOM      5  N   LIG    1        0.000   0.000   0.000  0.00  0.00    -0.274 N 
ATOM      6  C   LIG    1        0.000   0.000   0.000  0.00  0.00    +0.334 A 
ATOM      7  O   LIG    1        0.000   0.000   0.000  0.00  0.00    -0.246 OA
ATOM      8  N   LIG    1        0.000   0.000   0.000  0.00  0.00    -0.243 N 
ATOM      9  C   LIG    1        0.000   0.000   0.000  0.00  0.00    +0.283 A 
ATOM     10  O   LIG    1        0.000   0.000   0.000  0.00  0.00    -0.265 OA
ATOM     11  C   LIG    1        0.000   0.000   0.000  0.00  0.00    +0.056 C 
ATOM     12  C   LIG    1        0.000   0.000   0.000  0.00  0.00    +0.151 A 
ENDROOT
BRANCH   1  14
ATOM     13  C   LIG    1        0.000   0.000   0.000  0.00  0.00    +0.028 C 
ATOM     14  C   LIG    1        0.000   0.000   0.000  0.00  0.00    +0.128 C 
ENDBRANCH   1  14
BRANCH   5  15
ATOM     15  C   LIG    1        0.000   0.000   0.000  0.00  0.00    +0.137 C 
BRANCH  15  16
ATOM     16  C   LIG    1        0.000   0.000   0.000  0.00  0.00    +0.000 A 
ATOM     17  C   LIG    1        0.000   0.000   0.000  0.00  0.00    -0.002 A 
ATOM     18  C   LIG    1        0.000   0.000   0.000  0.00  0.00    -0.001 A 
ATOM     19  C   LIG    1        0.000   0.000   0.000  0.00  0.00    -0.004 A 
ATOM     20  C   LIG    1        0.000   0.000   0.000  0.00  0.00    -0.022 A 
ATOM     21  C   LIG    1        0.000   0.000   0.000  0.00  0.00    +0.031 C 
ATOM     22  C   LIG    1        0.000   0.000   0.000  0.00  0.00    -0.007 A 
ENDBRANCH  15  16
ENDBRANCH   5  15
BRANCH   8  23
ATOM     23  C   LIG    1        0.000   0.000   0.000  0.00  0.00    +0.140 C 
BRANCH  23  24
ATOM     24  C   LIG    1        0.000   0.000   0.000  0.00  0.00    +0.001 A 
ATOM     25  C   LIG    1        0.000   0.000   0.000  0.00  0.00    -0.002 A 
ATOM     26  C   LIG    1        0.000   0.000   0.000  0.00  0.00    -0.000 A 
ATOM     27  C   LIG    1        0.000   0.000   0.000  0.00  0.00    -0.000 A 
ATOM     28  C   LIG    1        0.000   0.000   0.000  0.00  0.00    -0.000 A 
ATOM     29  C   LIG    1        0.000   0.000   0.000  0.00  0.00    -0.002 A 
ENDBRANCH  23  24
ENDBRANCH   8  23
TORSDOF 5
ENDMDL
MODEL       32
REMARK  Name = 
REMARK                            x       y       z     vdW  Elec       q    Type
REMARK                         _______ _______ _______ _____ _____    ______ ____
ROOT
ATOM      1  C   LIG    1        0.000   0.000   0.000  0.00  0.00    +0.155 C 
ATOM      2  N   LIG    1        0.000   0.000   0.000  0.00  0.00    -0.232 N 
ATOM      3  N   LIG    1        0.000   0.000   0.000  0.00  0.00    -0.166 NA
ATOM      4  C   LIG    1        0.000   0.000   0.000  0.00  0.00    +0.126 A 
ATOM      5  C   LIG    1        0.000   0.000   0.000  0.00  0.00    +0.089 A 
ATOM      6  C   LIG    1        0.000   0.000   0.000  0.00  0.00    +0.155 A 
ATOM      7  N   LIG    1        0.000   0.000   0.000  0.00  0.00    -0.197 NA
ATOM      8  C   LIG    1        0.000   0.000   0.000  0.00  0.00    +0.223 A 
ATOM      9  N   LIG    1        0.000   0.000   0.000  0.00  0.00    -0.195 NA
ATOM     10  C   LIG    1        0.000   0.000   0.000  0.00  0.00    +0.167 A 
ENDROOT
BRANCH   8  11
ATOM     11  N   LIG    1        0.000   0.000   0.000  0.00  0.00    -0.275 N 
ATOM     12  C   LIG    1        0.000   0.000   0.000  0.00  0.00    +0.111 C 
ATOM     13  C   LIG    1        0.000   0.000   0.000  0.00  0.00    +0.094 C 
ATOM     14  N   LIG    1        0.000   0.000   0.000  0.00  0.00    -0.268 NA
ATOM     15  C   LIG    1        0.000   0.000   0.000  0.00  0.00    +0.094 C 
ATOM     16  C   LIG    1        0.000   0.000   0.000  0.00  0.00    +0.111 C 
BRANCH  14  17
ATOM     17  C   LIG    1        0.000   0.000   0.000  0.00  0.00    +0.108 C 
BRANCH  17  18
ATOM     18  C   LIG    1        0.000   0.000   0.000  0.00  0.00    +0.199 C 
ATOM     19  O   LIG    1        0.000   0.000   0.000  0.00  0.00    -0.219 OA
ENDBRANCH  17  18
ENDBRANCH  14  17
ENDBRANCH   8  11
BRANCH   6  20
ATOM     20  N   LIG    1        0.000   0.000   0.000  0.00  0.00    -0.215 NA
BRANCH  20  21
ATOM     21  C   LIG    1        0.000   0.000   0.000  0.00  0.00    +0.140 C 
BRANCH  21  22
ATOM     22  C   LIG    1        0.000   0.000   0.000  0.00  0.00    -0.001 A 
ATOM     23  C   LIG    1        0.000   0.000   0.000  0.00  0.00    -0.003 A 
ATOM     24  C   LIG    1        0.000   0.000   0.000  0.00  0.00    -0.000 A 
ATOM     25  C   LIG    1        0.000   0.000   0.000  0.00  0.00    -0.000 A 
ATOM     26  C   LIG    1        0.000   0.000   0.000  0.00  0.00    -0.000 A 
ATOM     27  C   LIG    1        0.000   0.000   0.000  0.00  0.00    -0.003 A 
ENDBRANCH  21  22
ENDBRANCH  20  21
ENDBRANCH   6  20
TORSDOF 6
ENDMDL
MODEL       33
REMARK  Name = 
REMARK                            x       y       z     vdW  Elec       q    Type
REMARK                         _______ _______ _______ _____ _____    ______ ____
ROOT
ATOM      1  C   LIG    1        0.000   0.000   0.000  0.00  0.00    +0.223 A 
ATOM      2  N   LIG    1        0.000   0.000   0.000  0.00  0.00    -0.197 NA
ATOM      3  C   LIG    1        0.000   0.000   0.000  0.00  0.00    +0.155 A 
ATOM      4  C   LIG    1        0.000   0.000   0.000  0.00  0.00    +0.089 A 
ATOM      5  C   LIG    1        0.000   0.000   0.000  0.00  0.00    +0.126 A 
ATOM      6  N   LIG    1        0.000   0.000   0.000  0.00  0.00    -0.166 NA
ATOM      7  N   LIG    1        0.000   0.000   0.000  0.00  0.00    -0.232 N 
ATOM      8  C   LIG    1        0.000   0.000   0.000  0.00  0.00    +0.155 C 
ATOM      9  C   LIG    1        0.000   0.000   0.000  0.00  0.00    +0.167 A 
ATOM     10  N   LIG    1        0.000   0.000   0.000  0.00  0.00    -0.195 NA
ENDROOT
BRANCH   1  14
ATOM     11  N   LIG    1        0.000   0.000   0.000  0.00  0.00    -0.270 NA
ATOM     12  C   LIG    1        0.000   0.000   0.000  0.00  0.00    +0.094 C 
ATOM     13  C   LIG    1        0.000   0.000   0.000  0.00  0.00    +0.111 C 
ATOM     14  N   LIG    1        0.000   0.000   0.000  0.00  0.00    -0.275 N 
ATOM     15  C   LIG    1        0.000   0.000   0.000  0.00  0.00    +0.111 C 
ATOM     16  C   LIG    1        0.000   0.000   0.000  0.00  0.00    +0.094 C 
BRANCH  11  18
ATOM     17  C   LIG    1        0.000   0.000   0.000  0.00  0.00    +0.019 C 
ATOM     18  C   LIG    1        0.000   0.000   0.000  0.00  0.00    +0.072 C 
ENDBRANCH  11  18
ENDBRANCH   1  14
BRANCH   3  19
ATOM     19  N   LIG    1        0.000   0.000   0.000  0.00  0.00    -0.215 NA
BRANCH  19  20
ATOM     20  C   LIG    1        0.000   0.000   0.000  0.00  0.00    +0.143 C 
BRANCH  20  21
ATOM     21  C   LIG    1        0.000   0.000   0.000  0.00  0.00    +0.033 A 
ATOM     22  C   LIG    1        0.000   0.000   0.000  0.00  0.00    +0.000 A 
ATOM     23  C   LIG    1        0.000   0.000   0.000  0.00  0.00    -0.000 A 
ATOM     24  C   LIG    1        0.000   0.000   0.000  0.00  0.00    +0.003 A 
ATOM     25  C   LIG    1        0.000   0.000   0.000  0.00  0.00    +0.037 A 
ATOM     26  C   LIG    1        0.000   0.000   0.000  0.00  0.00    +0.136 A 
BRANCH  26  27
ATOM     27  O   LIG    1        0.000   0.000   0.000  0.00  0.00    -0.472 OA
ATOM     28  C   LIG    1        0.000   0.000   0.000  0.00  0.00    +0.252 C 
ENDBRANCH  26  27
ENDBRANCH  20  21
ENDBRANCH  19  20
ENDBRANCH   3  19
TORSDOF 6
ENDMDL
MODEL       34
REMARK  Name = 
REMARK                            x       y       z     vdW  Elec       q    Type
REMARK                         _______ _______ _______ _____ _____    ______ ____
ROOT
ATOM      1  C   LIG    1        0.000   0.000   0.000  0.00  0.00    +0.155 A 
ATOM      2  N   LIG    1        0.000   0.000   0.000  0.00  0.00    -0.197 NA
ATOM      3  C   LIG    1        0.000   0.000   0.000  0.00  0.00    +0.223 A 
ATOM      4  N   LIG    1        0.000   0.000   0.000  0.00  0.00    -0.195 NA
ATOM      5  C   LIG    1        0.000   0.000   0.000  0.00  0.00    +0.167 A 
ATOM      6  N   LIG    1        0.000   0.000   0.000  0.00  0.00    -0.232 N 
ATOM      7  C   LIG    1        0.000   0.000   0.000  0.00  0.00    +0.155 C 
ATOM      8  N   LIG    1        0.000   0.000   0.000  0.00  0.00    -0.166 NA
ATOM      9  C   LIG    1        0.000   0.000   0.000  0.00  0.00    +0.126 A 
ATOM     10  C   LIG    1        0.000   0.000   0.000  0.00  0.00    +0.089 A 
ENDROOT
BRANCH   3  11
ATOM     11  N   LIG    1        0.000   0.000   0.000  0.00  0.00    -0.275 N 
ATOM     12  C   LIG    1        0.000   0.000   0.000  0.00  0.00    +0.111 C 
ATOM     13  C   LIG    1        0.000   0.000   0.000  0.00  0.00    +0.094 C 
ATOM     14  N   LIG    1        0.000   0.000   0.000  0.00  0.00    -0.269 NA
ATOM     15  C   LIG    1        0.000   0.000   0.000  0.00  0.00    +0.094 C 
ATOM     16  C   LIG    1        0.000   0.000   0.000  0.00  0.00    +0.090 C 
ATOM     17  C   LIG    1        0.000   0.000   0.000  0.00  0.00    +0.111 C 
ENDBRANCH   3  11
BRANCH   1  18
ATOM     18  N   LIG    1        0.000   0.000   0.000  0.00  0.00    -0.215 NA
BRANCH  18  19
ATOM     19  C   LIG    1        0.000   0.000   0.000  0.00  0.00    +0.140 C 
BRANCH  19  23
ATOM     20  C   LIG    1        0.000   0.000   0.000  0.00  0.00    +0.139 A 
ATOM     21  C   LIG    1        0.000   0.000   0.000  0.00  0.00    +0.037 A 
ATOM     22  C   LIG    1        0.000   0.000   0.000  0.00  0.00    +0.001 A 
ATOM     23  C   LIG    1        0.000   0.000   0.000  0.00  0.00    -0.000 A 
ATOM     24  C   LIG    1        0.000   0.000   0.000  0.00  0.00    +0.001 A 
ATOM     25  C   LIG    1        0.000   0.000   0.000  0.00  0.00    +0.037 A 
BRANCH  20  27
ATOM     26  C   LIG    1        0.000   0.000   0.000  0.00  0.00    +0.252 C 
ATOM     27  O   LIG    1        0.000   0.000   0.000  0.00  0.00    -0.471 OA
ENDBRANCH  20  27
ENDBRANCH  19  23
ENDBRANCH  18  19
ENDBRANCH   1  18
TORSDOF 5
ENDMDL
MODEL       35
REMARK  Name = 
REMARK                            x       y       z     vdW  Elec       q    Type
REMARK                         _______ _______ _______ _____ _____    ______ ____
ROOT
ATOM      1  C   LIG    1        0.000   0.000   0.000  0.00  0.00    +0.155 C 
ATOM      2  N   LIG    1        0.000   0.000   0.000  0.00  0.00    -0.232 N 
ATOM      3  N   LIG    1        0.000   0.000   0.000  0.00  0.00    -0.166 NA
ATOM      4  C   LIG    1        0.000   0.000   0.000  0.00  0.00    +0.126 A 
ATOM      5  C   LIG    1        0.000   0.000   0.000  0.00  0.00    +0.088 A 
ATOM      6  C   LIG    1        0.000   0.000   0.000  0.00  0.00    +0.139 A 
ATOM      7  N   LIG    1        0.000   0.000   0.000  0.00  0.00    -0.199 NA
ATOM      8  C   LIG    1        0.000   0.000   0.000  0.00  0.00    +0.223 A 
ATOM      9  N   LIG    1        0.000   0.000   0.000  0.00  0.00    -0.195 NA
ATOM     10  C   LIG    1        0.000   0.000   0.000  0.00  0.00    +0.167 A 
ENDROOT
BRANCH   8  11
ATOM     11  N   LIG    1        0.000   0.000   0.000  0.00  0.00    -0.275 N 
ATOM     12  C   LIG    1        0.000   0.000   0.000  0.00  0.00    +0.111 C 
ATOM     13  C   LIG    1        0.000   0.000   0.000  0.00  0.00    +0.094 C 
ATOM     14  N   LIG    1        0.000   0.000   0.000  0.00  0.00    -0.266 NA
ATOM     15  C   LIG    1        0.000   0.000   0.000  0.00  0.00    +0.094 C 
ATOM     16  C   LIG    1        0.000   0.000   0.000  0.00  0.00    +0.111 C 
BRANCH  14  17
ATOM     17  C   LIG    1        0.000   0.000   0.000  0.00  0.00    +0.099 C 
BRANCH  17  18
ATOM     18  C   LIG    1        0.000   0.000   0.000  0.00  0.00    -0.006 A 
ATOM     19  C   LIG    1        0.000   0.000   0.000  0.00  0.00    -0.003 A 
ATOM     20  C   LIG    1        0.000   0.000   0.000  0.00  0.00    -0.000 A 
ATOM     21  C   LIG    1        0.000   0.000   0.000  0.00  0.00    -0.000 A 
ATOM     22  C   LIG    1        0.000   0.000   0.000  0.00  0.00    -0.000 A 
ATOM     23  C   LIG    1        0.000   0.000   0.000  0.00  0.00    -0.003 A 
ENDBRANCH  17  18
ENDBRANCH  14  17
ENDBRANCH   8  11
BRANCH   6  24
ATOM     24  N   LIG    1        0.000   0.000   0.000  0.00  0.00    -0.288 N 
ATOM     25  C   LIG    1        0.000   0.000   0.000  0.00  0.00    +0.124 C 
ATOM     26  C   LIG    1        0.000   0.000   0.000  0.00  0.00    +0.164 C 
ATOM     27  O   LIG    1        0.000   0.000   0.000  0.00  0.00    -0.350 OA
ATOM     28  C   LIG    1        0.000   0.000   0.000  0.00  0.00    +0.164 C 
ATOM     29  C   LIG    1        0.000   0.000   0.000  0.00  0.00    +0.124 C 
ENDBRANCH   6  24
TORSDOF 4
ENDMDL
MODEL       36
REMARK  Name = 
REMARK                            x       y       z     vdW  Elec       q    Type
REMARK                         _______ _______ _______ _____ _____    ______ ____
ROOT
ATOM      1  N   LIG    1        0.000   0.000   0.000  0.00  0.00    -0.285 N 
ENDROOT
BRANCH   1   7
ATOM      2  C   LIG    1        0.000   0.000   0.000  0.00  0.00    +0.155 C 
ATOM      3  N   LIG    1        0.000   0.000   0.000  0.00  0.00    -0.232 N 
ATOM      4  N   LIG    1        0.000   0.000   0.000  0.00  0.00    -0.166 NA
ATOM      5  C   LIG    1        0.000   0.000   0.000  0.00  0.00    +0.126 A 
ATOM      6  C   LIG    1        0.000   0.000   0.000  0.00  0.00    +0.088 A 
ATOM      7  C   LIG    1        0.000   0.000   0.000  0.00  0.00    +0.138 A 
ATOM      8  N   LIG    1        0.000   0.000   0.000  0.00  0.00    -0.209 NA
ATOM      9  C   LIG    1        0.000   0.000   0.000  0.00  0.00    +0.201 A 
ATOM     10  N   LIG    1        0.000   0.000   0.000  0.00  0.00    -0.205 NA
ATOM     11  C   LIG    1        0.000   0.000   0.000  0.00  0.00    +0.165 A 
ENDBRANCH   1   7
BRANCH   1  12
ATOM     12  C   LIG    1        0.000   0.000   0.000  0.00  0.00    +0.119 C 
BRANCH  12  13
ATOM     13  C   LIG    1        0.000   0.000   0.000  0.00  0.00    -0.002 A 
ATOM     14  C   LIG    1        0.000   0.000   0.000  0.00  0.00    -0.003 A 
ATOM     15  C   LIG    1        0.000   0.000   0.000  0.00  0.00    -0.000 A 
ATOM     16  C   LIG    1        0.000   0.000   0.000  0.00  0.00    -0.000 A 
ATOM     17  C   LIG    1        0.000   0.000   0.000  0.00  0.00    -0.000 A 
ATOM     18  C   LIG    1        0.000   0.000   0.000  0.00  0.00    -0.003 A 
ENDBRANCH  12  13
ENDBRANCH   1  12
BRANCH   1  19
ATOM     19  C   LIG    1        0.000   0.000   0.000  0.00  0.00    +0.119 C 
BRANCH  19  20
ATOM     20  C   LIG    1        0.000   0.000   0.000  0.00  0.00    -0.002 A 
ATOM     21  C   LIG    1        0.000   0.000   0.000  0.00  0.00    -0.003 A 
ATOM     22  C   LIG    1        0.000   0.000   0.000  0.00  0.00    -0.000 A 
ATOM     23  C   LIG    1        0.000   0.000   0.000  0.00  0.00    -0.000 A 
ATOM     24  C   LIG    1        0.000   0.000   0.000  0.00  0.00    -0.000 A 
ATOM     25  C   LIG    1        0.000   0.000   0.000  0.00  0.00    -0.003 A 
ENDBRANCH  19  20
ENDBRANCH   1  19
TORSDOF 5
ENDMDL
MODEL       37
REMARK  Name = 
REMARK                            x       y       z     vdW  Elec       q    Type
REMARK                         _______ _______ _______ _____ _____    ______ ____
ROOT
ATOM      1  C   LIG    1        0.000   0.000   0.000  0.00  0.00    +0.223 A 
ATOM      2  N   LIG    1        0.000   0.000   0.000  0.00  0.00    -0.197 NA
ATOM      3  C   LIG    1        0.000   0.000   0.000  0.00  0.00    +0.155 A 
ATOM      4  C   LIG    1        0.000   0.000   0.000  0.00  0.00    +0.089 A 
ATOM      5  C   LIG    1        0.000   0.000   0.000  0.00  0.00    +0.126 A 
ATOM      6  N   LIG    1        0.000   0.000   0.000  0.00  0.00    -0.166 NA
ATOM      7  N   LIG    1        0.000   0.000   0.000  0.00  0.00    -0.232 N 
ATOM      8  C   LIG    1        0.000   0.000   0.000  0.00  0.00    +0.155 C 
ATOM      9  C   LIG    1        0.000   0.000   0.000  0.00  0.00    +0.167 A 
ATOM     10  N   LIG    1        0.000   0.000   0.000  0.00  0.00    -0.195 NA
ENDROOT
BRANCH   1  11
ATOM     11  N   LIG    1        0.000   0.000   0.000  0.00  0.00    -0.278 N 
BRANCH  11  13
ATOM     12  C   LIG    1        0.000   0.000   0.000  0.00  0.00    +0.023 C 
ATOM     13  C   LIG    1        0.000   0.000   0.000  0.00  0.00    +0.094 C 
ENDBRANCH  11  13
BRANCH  11  14
ATOM     14  C   LIG    1        0.000   0.000   0.000  0.00  0.00    +0.094 C 
ATOM     15  C   LIG    1        0.000   0.000   0.000  0.00  0.00    +0.023 C 
ENDBRANCH  11  14
ENDBRANCH   1  11
BRANCH   3  16
ATOM     16  N   LIG    1        0.000   0.000   0.000  0.00  0.00    -0.215 NA
BRANCH  16  17
ATOM     17  C   LIG    1        0.000   0.000   0.000  0.00  0.00    +0.140 C 
BRANCH  17  18
ATOM     18  C   LIG    1        0.000   0.000   0.000  0.00  0.00    -0.001 A 
ATOM     19  C   LIG    1        0.000   0.000   0.000  0.00  0.00    -0.003 A 
ATOM     20  C   LIG    1        0.000   0.000   0.000  0.00  0.00    -0.000 A 
ATOM     21  C   LIG    1        0.000   0.000   0.000  0.00  0.00    -0.000 A 
ATOM     22  C   LIG    1        0.000   0.000   0.000  0.00  0.00    -0.000 A 
ATOM     23  C   LIG    1        0.000   0.000   0.000  0.00  0.00    -0.003 A 
ENDBRANCH  17  18
ENDBRANCH  16  17
ENDBRANCH   3  16
TORSDOF 6
ENDMDL
MODEL       38
REMARK  Name = 
REMARK                            x       y       z     vdW  Elec       q    Type
REMARK                         _______ _______ _______ _____ _____    ______ ____
ROOT
ATOM      1  C   LIG    1        0.000   0.000   0.000  0.00  0.00    +0.155 C 
ATOM      2  N   LIG    1        0.000   0.000   0.000  0.00  0.00    -0.232 N 
ATOM      3  N   LIG    1        0.000   0.000   0.000  0.00  0.00    -0.166 NA
ATOM      4  C   LIG    1        0.000   0.000   0.000  0.00  0.00    +0.126 A 
ATOM      5  C   LIG    1        0.000   0.000   0.000  0.00  0.00    +0.088 A 
ATOM      6  C   LIG    1        0.000   0.000   0.000  0.00  0.00    +0.139 A 
ATOM      7  N   LIG    1        0.000   0.000   0.000  0.00  0.00    -0.199 NA
ATOM      8  C   LIG    1        0.000   0.000   0.000  0.00  0.00    +0.223 A 
ATOM      9  N   LIG    1        0.000   0.000   0.000  0.00  0.00    -0.195 NA
ATOM     10  C   LIG    1        0.000   0.000   0.000  0.00  0.00    +0.167 A 
ENDROOT
BRANCH   8  11
ATOM     11  N   LIG    1        0.000   0.000   0.000  0.00  0.00    -0.275 N 
ATOM     12  C   LIG    1        0.000   0.000   0.000  0.00  0.00    +0.111 C 
ATOM     13  C   LIG    1        0.000   0.000   0.000  0.00  0.00    +0.094 C 
ATOM     14  N   LIG    1        0.000   0.000   0.000  0.00  0.00    -0.266 NA
ATOM     15  C   LIG    1        0.000   0.000   0.000  0.00  0.00    +0.094 C 
ATOM     16  C   LIG    1        0.000   0.000   0.000  0.00  0.00    +0.111 C 
BRANCH  14  17
ATOM     17  C   LIG    1        0.000   0.000   0.000  0.00  0.00    +0.099 C 
BRANCH  17  18
ATOM     18  C   LIG    1        0.000   0.000   0.000  0.00  0.00    -0.006 A 
ATOM     19  C   LIG    1        0.000   0.000   0.000  0.00  0.00    -0.003 A 
ATOM     20  C   LIG    1        0.000   0.000   0.000  0.00  0.00    -0.000 A 
ATOM     21  C   LIG    1        0.000   0.000   0.000  0.00  0.00    -0.000 A 
ATOM     22  C   LIG    1        0.000   0.000   0.000  0.00  0.00    -0.000 A 
ATOM     23  C   LIG    1        0.000   0.000   0.000  0.00  0.00    -0.003 A 
ENDBRANCH  17  18
ENDBRANCH  14  17
ENDBRANCH   8  11
BRANCH   6  24
ATOM     24  N   LIG    1        0.000   0.000   0.000  0.00  0.00    -0.293 N 
ATOM     25  C   LIG    1        0.000   0.000   0.000  0.00  0.00    +0.092 C 
ATOM     26  C   LIG    1        0.000   0.000   0.000  0.00  0.00    +0.023 C 
ATOM     27  C   LIG    1        0.000   0.000   0.000  0.00  0.00    +0.023 C 
ATOM     28  C   LIG    1        0.000   0.000   0.000  0.00  0.00    +0.092 C 
ENDBRANCH   6  24
TORSDOF 4
ENDMDL
MODEL       39
REMARK  Name = 
REMARK                            x       y       z     vdW  Elec       q    Type
REMARK                         _______ _______ _______ _____ _____    ______ ____
ROOT
ATOM      1  C   LIG    1        0.000   0.000   0.000  0.00  0.00    +0.116 A 
ATOM      2  C   LIG    1        0.000   0.000   0.000  0.00  0.00    +0.134 A 
ATOM      3  N   LIG    1        0.000   0.000   0.000  0.00  0.00    -0.161 NA
ATOM      4  N   LIG    1        0.000   0.000   0.000  0.00  0.00    -0.225 N 
ATOM      5  C   LIG    1        0.000   0.000   0.000  0.00  0.00    +0.174 A 
ATOM      6  N   LIG    1        0.000   0.000   0.000  0.00  0.00    -0.107 NA
ENDROOT
BRANCH   1  10
ATOM      7  C   LIG    1        0.000   0.000   0.000  0.00  0.00    +0.204 A 
ATOM      8  N   LIG    1        0.000   0.000   0.000  0.00  0.00    -0.056 NA
ATOM      9  O   LIG    1        0.000   0.000   0.000  0.00  0.00    -0.332 OA
ATOM     10  C   LIG    1        0.000   0.000   0.000  0.00  0.00    +0.265 A 
ATOM     11  N   LIG    1        0.000   0.000   0.000  0.00  0.00    -0.187 NA
BRANCH   7  15
ATOM     12  C   LIG    1        0.000   0.000   0.000  0.00  0.00    +0.139 A 
ATOM     13  C   LIG    1        0.000   0.000   0.000  0.00  0.00    +0.037 A 
ATOM     14  C   LIG    1        0.000   0.000   0.000  0.00  0.00    +0.006 A 
ATOM     15  C   LIG    1        0.000   0.000   0.000  0.00  0.00    +0.039 A 
ATOM     16  C   LIG    1        0.000   0.000   0.000  0.00  0.00    +0.006 A 
ATOM     17  C   LIG    1        0.000   0.000   0.000  0.00  0.00    +0.037 A 
BRANCH  12  19
ATOM     18  C   LIG    1        0.000   0.000   0.000  0.00  0.00    +0.252 C 
ATOM     19  O   LIG    1        0.000   0.000   0.000  0.00  0.00    -0.471 OA
ENDBRANCH  12  19
ENDBRANCH   7  15
ENDBRANCH   1  10
BRANCH   2  20
ATOM     20  S   LIG    1        0.000   0.000   0.000  0.00  0.00    -0.092 S 
ATOM     21  C   LIG    1        0.000   0.000   0.000  0.00  0.00    +0.076 C 
ENDBRANCH   2  20
BRANCH   4  22
ATOM     22  C   LIG    1        0.000   0.000   0.000  0.00  0.00    +0.215 C 
BRANCH  22  23
ATOM     23  C   LIG    1        0.000   0.000   0.000  0.00  0.00    +0.267 C 
ATOM     24  N   LIG    1        0.000   0.000   0.000  0.00  0.00    -0.199 NA
ATOM     25  O   LIG    1        0.000   0.000   0.000  0.00  0.00    -0.271 OA
BRANCH  24  26
ATOM     26  C   LIG    1        0.000   0.000   0.000  0.00  0.00    +0.142 C 
BRANCH  26  27
ATOM     27  C   LIG    1        0.000   0.000   0.000  0.00  0.00    -0.000 A 
ATOM     28  C   LIG    1        0.000   0.000   0.000  0.00  0.00    -0.000 A 
ATOM     29  C   LIG    1        0.000   0.000   0.000  0.00  0.00    +0.029 A 
ATOM     30  C   LIG    1        0.000   0.000   0.000  0.00  0.00    +0.140 A 
ATOM     31  C   LIG    1        0.000   0.000   0.000  0.00  0.00    +0.029 A 
ATOM     32  F   LIG    1        0.000   0.000   0.000  0.00  0.00    -0.204 F 
ATOM     33  C   LIG    1        0.000   0.000   0.000  0.00  0.00    -0.000 A 
ENDBRANCH  26  27
ENDBRANCH  24  26
ENDBRANCH  22  23
ENDBRANCH   4  22
TORSDOF 8
ENDMDL
MODEL       40
REMARK  Name = 
REMARK                            x       y       z     vdW  Elec       q    Type
REMARK                         _______ _______ _______ _____ _____    ______ ____
ROOT
ATOM      1  C   LIG    1        0.000   0.000   0.000  0.00  0.00    +0.226 C 
ATOM      2  N   LIG    1        0.000   0.000   0.000  0.00  0.00    -0.275 N 
ATOM      3  C   LIG    1        0.000   0.000   0.000  0.00  0.00    +0.100 C 
ATOM      4  C   LIG    1        0.000   0.000   0.000  0.00  0.00    +0.067 C 
ATOM      5  C   LIG    1        0.000   0.000   0.000  0.00  0.00    +0.057 A 
ATOM      6  C   LIG    1        0.000   0.000   0.000  0.00  0.00    +0.035 A 
ATOM      7  C   LIG    1        0.000   0.000   0.000  0.00  0.00    +0.155 A 
ATOM      8  N   LIG    1        0.000   0.000   0.000  0.00  0.00    -0.165 NA
ATOM      9  N   LIG    1        0.000   0.000   0.000  0.00  0.00    -0.253 N 
ATOM     10  C   LIG    1        0.000   0.000   0.000  0.00  0.00    +0.153 C 
ATOM     11  C   LIG    1        0.000   0.000   0.000  0.00  0.00    +0.123 C 
ATOM     12  O   LIG    1        0.000   0.000   0.000  0.00  0.00    -0.275 OA
ENDROOT
BRANCH   7  13
ATOM     13  C   LIG    1        0.000   0.000   0.000  0.00  0.00    +0.279 A 
ATOM     14  N   LIG    1        0.000   0.000   0.000  0.00  0.00    -0.186 NA
ATOM     15  C   LIG    1        0.000   0.000   0.000  0.00  0.00    +0.204 A 
ATOM     16  N   LIG    1        0.000   0.000   0.000  0.00  0.00    -0.056 NA
ATOM     17  O   LIG    1        0.000   0.000   0.000  0.00  0.00    -0.331 OA
BRANCH  15  18
ATOM     18  C   LIG    1        0.000   0.000   0.000  0.00  0.00    +0.039 A 
ATOM     19  C   LIG    1        0.000   0.000   0.000  0.00  0.00    +0.003 A 
ATOM     20  C   LIG    1        0.000   0.000   0.000  0.00  0.00    +0.000 A 
ATOM     21  C   LIG    1        0.000   0.000   0.000  0.00  0.00    +0.000 A 
ATOM     22  C   LIG    1        0.000   0.000   0.000  0.00  0.00    +0.000 A 
ATOM     23  C   LIG    1        0.000   0.000   0.000  0.00  0.00    +0.003 A 
ENDBRANCH  15  18
ENDBRANCH   7  13
BRANCH   1  24
ATOM     24  C   LIG    1        0.000   0.000   0.000  0.00  0.00    +0.090 C 
BRANCH  24  25
ATOM     25  C   LIG    1        0.000   0.000   0.000  0.00  0.00    +0.036 C 
BRANCH  25  29
ATOM     26  C   LIG    1        0.000   0.000   0.000  0.00  0.00    +0.139 A 
ATOM     27  C   LIG    1        0.000   0.000   0.000  0.00  0.00    +0.037 A 
ATOM     28  C   LIG    1        0.000   0.000   0.000  0.00  0.00    -0.001 A 
ATOM     29  C   LIG    1        0.000   0.000   0.000  0.00  0.00    -0.021 A 
ATOM     30  C   LIG    1        0.000   0.000   0.000  0.00  0.00    -0.001 A 
ATOM     31  C   LIG    1        0.000   0.000   0.000  0.00  0.00    +0.037 A 
BRANCH  26  33
ATOM     32  C   LIG    1        0.000   0.000   0.000  0.00  0.00    +0.252 C 
ATOM     33  O   LIG    1        0.000   0.000   0.000  0.00  0.00    -0.471 OA
ENDBRANCH  26  33
ENDBRANCH  25  29
ENDBRANCH  24  25
ENDBRANCH   1  24
TORSDOF 6
ENDMDL
MODEL       41
REMARK  Name = 
REMARK                            x       y       z     vdW  Elec       q    Type
REMARK                         _______ _______ _______ _____ _____    ______ ____
ROOT
ATOM      1  C   LIG    1        0.000   0.000   0.000  0.00  0.00    +0.116 A 
ATOM      2  C   LIG    1        0.000   0.000   0.000  0.00  0.00    +0.134 A 
ATOM      3  N   LIG    1        0.000   0.000   0.000  0.00  0.00    -0.161 NA
ATOM      4  N   LIG    1        0.000   0.000   0.000  0.00  0.00    -0.225 N 
ATOM      5  C   LIG    1        0.000   0.000   0.000  0.00  0.00    +0.174 A 
ATOM      6  N   LIG    1        0.000   0.000   0.000  0.00  0.00    -0.107 NA
ENDROOT
BRANCH   1  10
ATOM      7  C   LIG    1        0.000   0.000   0.000  0.00  0.00    +0.204 A 
ATOM      8  N   LIG    1        0.000   0.000   0.000  0.00  0.00    -0.056 NA
ATOM      9  O   LIG    1        0.000   0.000   0.000  0.00  0.00    -0.332 OA
ATOM     10  C   LIG    1        0.000   0.000   0.000  0.00  0.00    +0.265 A 
ATOM     11  N   LIG    1        0.000   0.000   0.000  0.00  0.00    -0.187 NA
BRANCH   7  15
ATOM     12  C   LIG    1        0.000   0.000   0.000  0.00  0.00    +0.139 A 
ATOM     13  C   LIG    1        0.000   0.000   0.000  0.00  0.00    +0.037 A 
ATOM     14  C   LIG    1        0.000   0.000   0.000  0.00  0.00    +0.006 A 
ATOM     15  C   LIG    1        0.000   0.000   0.000  0.00  0.00    +0.039 A 
ATOM     16  C   LIG    1        0.000   0.000   0.000  0.00  0.00    +0.006 A 
ATOM     17  C   LIG    1        0.000   0.000   0.000  0.00  0.00    +0.037 A 
BRANCH  12  19
ATOM     18  C   LIG    1        0.000   0.000   0.000  0.00  0.00    +0.252 C 
ATOM     19  O   LIG    1        0.000   0.000   0.000  0.00  0.00    -0.471 OA
ENDBRANCH  12  19
ENDBRANCH   7  15
ENDBRANCH   1  10
BRANCH   2  20
ATOM     20  S   LIG    1        0.000   0.000   0.000  0.00  0.00    -0.092 S 
ATOM     21  C   LIG    1        0.000   0.000   0.000  0.00  0.00    +0.076 C 
ENDBRANCH   2  20
BRANCH   4  22
ATOM     22  C   LIG    1        0.000   0.000   0.000  0.00  0.00    +0.215 C 
BRANCH  22  23
ATOM     23  C   LIG    1        0.000   0.000   0.000  0.00  0.00    +0.266 C 
ATOM     24  N   LIG    1        0.000   0.000   0.000  0.00  0.00    -0.203 NA
ATOM     25  O   LIG    1        0.000   0.000   0.000  0.00  0.00    -0.271 OA
BRANCH  24  26
ATOM     26  C   LIG    1        0.000   0.000   0.000  0.00  0.00    +0.120 C 
BRANCH  26  27
ATOM     27  C   LIG    1        0.000   0.000   0.000  0.00  0.00    +0.050 C 
BRANCH  27  28
ATOM     28  C   LIG    1        0.000   0.000   0.000  0.00  0.00    -0.020 A 
ATOM     29  C   LIG    1        0.000   0.000   0.000  0.00  0.00    -0.003 A 
ATOM     30  C   LIG    1        0.000   0.000   0.000  0.00  0.00    +0.011 A 
ATOM     31  C   LIG    1        0.000   0.000   0.000  0.00  0.00    +0.058 A 
ATOM     32  C   LIG    1        0.000   0.000   0.000  0.00  0.00    +0.011 A 
ATOM     33 CL   LIG    1        0.000   0.000   0.000  0.00  0.00    -0.082 Cl
ATOM     34  C   LIG    1        0.000   0.000   0.000  0.00  0.00    -0.003 A 
ENDBRANCH  27  28
ENDBRANCH  26  27
ENDBRANCH  24  26
ENDBRANCH  22  23
ENDBRANCH   4  22
TORSDOF 9
ENDMDL
MODEL       42
REMARK  Name = 
REMARK                            x       y       z     vdW  Elec       q    Type
REMARK                         _______ _______ _______ _____ _____    ______ ____
ROOT
ATOM      1  C   LIG    1        0.000   0.000   0.000  0.00  0.00    +0.105 A 
ATOM      2  N   LIG    1        0.000   0.000   0.000  0.00  0.00    -0.167 NA
ATOM      3  N   LIG    1        0.000   0.000   0.000  0.00  0.00    -0.215 N 
ATOM      4  C   LIG    1        0.000   0.000   0.000  0.00  0.00    +0.297 A 
ATOM      5  C   LIG    1        0.000   0.000   0.000  0.00  0.00    +0.181 A 
ATOM      6  N   LIG    1        0.000   0.000   0.000  0.00  0.00    -0.072 NA
ATOM      7  O   LIG    1        0.000   0.000   0.000  0.00  0.00    -0.358 OA
ATOM      8  C   LIG    1        0.000   0.000   0.000  0.00  0.00    +0.156 A 
ATOM      9  C   LIG    1        0.000   0.000   0.000  0.00  0.00    +0.075 C 
ATOM     10  O   LIG    1        0.000   0.000   0.000  0.00  0.00    -0.264 OA
ATOM     11  C   LIG    1        0.000   0.000   0.000  0.00  0.00    +0.078 A 
ENDROOT
BRANCH   1  15
ATOM     12  C   LIG    1        0.000   0.000   0.000  0.00  0.00    +0.139 A 
ATOM     13  C   LIG    1        0.000   0.000   0.000  0.00  0.00    +0.037 A 
ATOM     14  C   LIG    1        0.000   0.000   0.000  0.00  0.00    +0.005 A 
ATOM     15  C   LIG    1        0.000   0.000   0.000  0.00  0.00    +0.020 A 
ATOM     16  C   LIG    1        0.000   0.000   0.000  0.00  0.00    +0.005 A 
ATOM     17  C   LIG    1        0.000   0.000   0.000  0.00  0.00    +0.037 A 
BRANCH  12  19
ATOM     18  C   LIG    1        0.000   0.000   0.000  0.00  0.00    +0.252 C 
ATOM     19  O   LIG    1        0.000   0.000   0.000  0.00  0.00    -0.471 OA
ENDBRANCH  12  19
ENDBRANCH   1  15
BRANCH   3  20
ATOM     20  C   LIG    1        0.000   0.000   0.000  0.00  0.00    +0.131 C 
BRANCH  20  21
ATOM     21  C   LIG    1        0.000   0.000   0.000  0.00  0.00    +0.036 C 
BRANCH  21  22
ATOM     22  C   LIG    1        0.000   0.000   0.000  0.00  0.00    +0.089 C 
BRANCH  22  23
ATOM     23  C   LIG    1        0.000   0.000   0.000  0.00  0.00    +0.241 C 
ATOM     24  N   LIG    1        0.000   0.000   0.000  0.00  0.00    -0.205 NA
ATOM     25  O   LIG    1        0.000   0.000   0.000  0.00  0.00    -0.273 OA
BRANCH  24  26
ATOM     26  C   LIG    1        0.000   0.000   0.000  0.00  0.00    +0.120 C 
BRANCH  26  27
ATOM     27  C   LIG    1        0.000   0.000   0.000  0.00  0.00    +0.050 C 
BRANCH  27  28
ATOM     28  C   LIG    1        0.000   0.000   0.000  0.00  0.00    -0.020 A 
ATOM     29  C   LIG    1        0.000   0.000   0.000  0.00  0.00    -0.003 A 
ATOM     30  C   LIG    1        0.000   0.000   0.000  0.00  0.00    +0.011 A 
ATOM     31  C   LIG    1        0.000   0.000   0.000  0.00  0.00    +0.058 A 
ATOM     32  C   LIG    1        0.000   0.000   0.000  0.00  0.00    +0.011 A 
ATOM     33 CL   LIG    1        0.000   0.000   0.000  0.00  0.00    -0.082 Cl
ATOM     34  C   LIG    1        0.000   0.000   0.000  0.00  0.00    -0.003 A 
ENDBRANCH  27  28
ENDBRANCH  26  27
ENDBRANCH  24  26
ENDBRANCH  22  23
ENDBRANCH  21  22
ENDBRANCH  20  21
ENDBRANCH   3  20
TORSDOF 9
ENDMDL
MODEL       43
REMARK  Name = 
REMARK                            x       y       z     vdW  Elec       q    Type
REMARK                         _______ _______ _______ _____ _____    ______ ____
ROOT
ATOM      1  C   LIG    1        0.000   0.000   0.000  0.00  0.00    +0.239 A 
ATOM      2  N   LIG    1        0.000   0.000   0.000  0.00  0.00    -0.196 NA
ATOM      3  C   LIG    1        0.000   0.000   0.000  0.00  0.00    +0.155 A 
ATOM      4  C   LIG    1        0.000   0.000   0.000  0.00  0.00    +0.089 A 
ATOM      5  C   LIG    1        0.000   0.000   0.000  0.00  0.00    +0.126 A 
ATOM      6  N   LIG    1        0.000   0.000   0.000  0.00  0.00    -0.166 NA
ATOM      7  N   LIG    1        0.000   0.000   0.000  0.00  0.00    -0.232 N 
ATOM      8  C   LIG    1        0.000   0.000   0.000  0.00  0.00    +0.155 C 
ATOM      9  C   LIG    1        0.000   0.000   0.000  0.00  0.00    +0.167 A 
ATOM     10  N   LIG    1        0.000   0.000   0.000  0.00  0.00    -0.193 NA
ENDROOT
BRANCH   1  11
ATOM     11  N   LIG    1        0.000   0.000   0.000  0.00  0.00    -0.204 NA
BRANCH  11  12
ATOM     12  C   LIG    1        0.000   0.000   0.000  0.00  0.00    +0.115 C 
BRANCH  12  14
ATOM     13  C   LIG    1        0.000   0.000   0.000  0.00  0.00    +0.002 C 
ATOM     14  C   LIG    1        0.000   0.000   0.000  0.00  0.00    +0.023 C 
ENDBRANCH  12  14
ENDBRANCH  11  12
ENDBRANCH   1  11
BRANCH   3  15
ATOM     15  N   LIG    1        0.000   0.000   0.000  0.00  0.00    -0.215 NA
BRANCH  15  16
ATOM     16  C   LIG    1        0.000   0.000   0.000  0.00  0.00    +0.140 C 
BRANCH  16  17
ATOM     17  C   LIG    1        0.000   0.000   0.000  0.00  0.00    -0.000 A 
ATOM     18  C   LIG    1        0.000   0.000   0.000  0.00  0.00    +0.001 A 
ATOM     19  C   LIG    1        0.000   0.000   0.000  0.00  0.00    +0.037 A 
ATOM     20  C   LIG    1        0.000   0.000   0.000  0.00  0.00    +0.139 A 
ATOM     21  C   LIG    1        0.000   0.000   0.000  0.00  0.00    +0.037 A 
ATOM     22  C   LIG    1        0.000   0.000   0.000  0.00  0.00    +0.001 A 
BRANCH  20  23
ATOM     23  O   LIG    1        0.000   0.000   0.000  0.00  0.00    -0.471 OA
ATOM     24  C   LIG    1        0.000   0.000   0.000  0.00  0.00    +0.252 C 
ENDBRANCH  20  23
ENDBRANCH  16  17
ENDBRANCH  15  16
ENDBRANCH   3  15
TORSDOF 7
ENDMDL
MODEL       44
REMARK  Name = 
REMARK                            x       y       z     vdW  Elec       q    Type
REMARK                         _______ _______ _______ _____ _____    ______ ____
ROOT
ATOM      1  C   LIG    1        0.000   0.000   0.000  0.00  0.00    +0.226 C 
ATOM      2  N   LIG    1        0.000   0.000   0.000  0.00  0.00    -0.275 N 
ATOM      3  C   LIG    1        0.000   0.000   0.000  0.00  0.00    +0.100 C 
ATOM      4  C   LIG    1        0.000   0.000   0.000  0.00  0.00    +0.067 C 
ATOM      5  C   LIG    1        0.000   0.000   0.000  0.00  0.00    +0.057 A 
ATOM      6  C   LIG    1        0.000   0.000   0.000  0.00  0.00    +0.035 A 
ATOM      7  C   LIG    1        0.000   0.000   0.000  0.00  0.00    +0.155 A 
ATOM      8  N   LIG    1        0.000   0.000   0.000  0.00  0.00    -0.165 NA
ATOM      9  N   LIG    1        0.000   0.000   0.000  0.00  0.00    -0.253 N 
ATOM     10  C   LIG    1        0.000   0.000   0.000  0.00  0.00    +0.153 C 
ATOM     11  C   LIG    1        0.000   0.000   0.000  0.00  0.00    +0.123 C 
ATOM     12  O   LIG    1        0.000   0.000   0.000  0.00  0.00    -0.275 OA
ENDROOT
BRANCH   7  13
ATOM     13  C   LIG    1        0.000   0.000   0.000  0.00  0.00    +0.279 A 
ATOM     14  N   LIG    1        0.000   0.000   0.000  0.00  0.00    -0.190 NA
ATOM     15  C   LIG    1        0.000   0.000   0.000  0.00  0.00    +0.181 A 
ATOM     16  N   LIG    1        0.000   0.000   0.000  0.00  0.00    -0.060 NA
ATOM     17  C   LIG    1        0.000   0.000   0.000  0.00  0.00    +0.077 C 
ATOM     18  O   LIG    1        0.000   0.000   0.000  0.00  0.00    -0.331 OA
ENDBRANCH   7  13
BRANCH   1  19
ATOM     19  C   LIG    1        0.000   0.000   0.000  0.00  0.00    +0.090 C 
BRANCH  19  20
ATOM     20  C   LIG    1        0.000   0.000   0.000  0.00  0.00    +0.036 C 
BRANCH  20  24
ATOM     21  C   LIG    1        0.000   0.000   0.000  0.00  0.00    +0.139 A 
ATOM     22  C   LIG    1        0.000   0.000   0.000  0.00  0.00    +0.037 A 
ATOM     23  C   LIG    1        0.000   0.000   0.000  0.00  0.00    -0.001 A 
ATOM     24  C   LIG    1        0.000   0.000   0.000  0.00  0.00    -0.021 A 
ATOM     25  C   LIG    1        0.000   0.000   0.000  0.00  0.00    -0.001 A 
ATOM     26  C   LIG    1        0.000   0.000   0.000  0.00  0.00    +0.037 A 
BRANCH  21  28
ATOM     27  C   LIG    1        0.000   0.000   0.000  0.00  0.00    +0.252 C 
ATOM     28  O   LIG    1        0.000   0.000   0.000  0.00  0.00    -0.471 OA
ENDBRANCH  21  28
ENDBRANCH  20  24
ENDBRANCH  19  20
ENDBRANCH   1  19
TORSDOF 5
ENDMDL
MODEL       45
REMARK  Name = 
REMARK                            x       y       z     vdW  Elec       q    Type
REMARK                         _______ _______ _______ _____ _____    ______ ____
ROOT
ATOM      1  C   LIG    1        0.000   0.000   0.000  0.00  0.00    +0.239 A 
ATOM      2  N   LIG    1        0.000   0.000   0.000  0.00  0.00    -0.196 NA
ATOM      3  C   LIG    1        0.000   0.000   0.000  0.00  0.00    +0.155 A 
ATOM      4  C   LIG    1        0.000   0.000   0.000  0.00  0.00    +0.089 A 
ATOM      5  C   LIG    1        0.000   0.000   0.000  0.00  0.00    +0.126 A 
ATOM      6  N   LIG    1        0.000   0.000   0.000  0.00  0.00    -0.166 NA
ATOM      7  N   LIG    1        0.000   0.000   0.000  0.00  0.00    -0.232 N 
ATOM      8  C   LIG    1        0.000   0.000   0.000  0.00  0.00    +0.155 C 
ATOM      9  C   LIG    1        0.000   0.000   0.000  0.00  0.00    +0.167 A 
ATOM     10  N   LIG    1        0.000   0.000   0.000  0.00  0.00    -0.193 NA
ENDROOT
BRANCH   1  11
ATOM     11  N   LIG    1        0.000   0.000   0.000  0.00  0.00    -0.204 NA
BRANCH  11  13
ATOM     12  C   LIG    1        0.000   0.000   0.000  0.00  0.00    +0.025 C 
ATOM     13  C   LIG    1        0.000   0.000   0.000  0.00  0.00    +0.115 C 
ENDBRANCH  11  13
ENDBRANCH   1  11
BRANCH   3  14
ATOM     14  N   LIG    1        0.000   0.000   0.000  0.00  0.00    -0.215 NA
BRANCH  14  15
ATOM     15  C   LIG    1        0.000   0.000   0.000  0.00  0.00    +0.140 C 
BRANCH  15  16
ATOM     16  C   LIG    1        0.000   0.000   0.000  0.00  0.00    -0.000 A 
ATOM     17  C   LIG    1        0.000   0.000   0.000  0.00  0.00    +0.001 A 
ATOM     18  C   LIG    1        0.000   0.000   0.000  0.00  0.00    +0.037 A 
ATOM     19  C   LIG    1        0.000   0.000   0.000  0.00  0.00    +0.139 A 
ATOM     20  C   LIG    1        0.000   0.000   0.000  0.00  0.00    +0.037 A 
ATOM     21  C   LIG    1        0.000   0.000   0.000  0.00  0.00    +0.001 A 
BRANCH  19  22
ATOM     22  O   LIG    1        0.000   0.000   0.000  0.00  0.00    -0.471 OA
ATOM     23  C   LIG    1        0.000   0.000   0.000  0.00  0.00    +0.252 C 
ENDBRANCH  19  22
ENDBRANCH  15  16
ENDBRANCH  14  15
ENDBRANCH   3  14
TORSDOF 6
ENDMDL
MODEL       46
REMARK  Name = 
REMARK                            x       y       z     vdW  Elec       q    Type
REMARK                         _______ _______ _______ _____ _____    ______ ____
ROOT
ATOM      1  N   LIG    1        0.000   0.000   0.000  0.00  0.00    -0.211 N 
ATOM      2  N   LIG    1        0.000   0.000   0.000  0.00  0.00    -0.062 NA
ATOM      3  N   LIG    1        0.000   0.000   0.000  0.00  0.00    -0.123 NA
ATOM      4  C   LIG    1        0.000   0.000   0.000  0.00  0.00    +0.193 A 
ATOM      5  C   LIG    1        0.000   0.000   0.000  0.00  0.00    +0.193 A 
ATOM      6  N   LIG    1        0.000   0.000   0.000  0.00  0.00    -0.106 NA
ENDROOT
BRANCH   4   7
ATOM      7  C   LIG    1        0.000   0.000   0.000  0.00  0.00    +0.287 C 
ATOM      8  N   LIG    1        0.000   0.000   0.000  0.00  0.00    -0.200 NA
ATOM      9  O   LIG    1        0.000   0.000   0.000  0.00  0.00    -0.267 OA
BRANCH   8  10
ATOM     10  C   LIG    1        0.000   0.000   0.000  0.00  0.00    +0.120 C 
BRANCH  10  11
ATOM     11  C   LIG    1        0.000   0.000   0.000  0.00  0.00    +0.050 C 
BRANCH  11  12
ATOM     12  C   LIG    1        0.000   0.000   0.000  0.00  0.00    -0.020 A 
ATOM     13  C   LIG    1        0.000   0.000   0.000  0.00  0.00    -0.003 A 
ATOM     14  C   LIG    1        0.000   0.000   0.000  0.00  0.00    +0.011 A 
ATOM     15  C   LIG    1        0.000   0.000   0.000  0.00  0.00    +0.058 A 
ATOM     16  C   LIG    1        0.000   0.000   0.000  0.00  0.00    +0.011 A 
ATOM     17 CL   LIG    1        0.000   0.000   0.000  0.00  0.00    -0.082 Cl
ATOM     18  C   LIG    1        0.000   0.000   0.000  0.00  0.00    -0.003 A 
ENDBRANCH  11  12
ENDBRANCH  10  11
ENDBRANCH   8  10
ENDBRANCH   4   7
BRANCH   1  19
ATOM     19  C   LIG    1        0.000   0.000   0.000  0.00  0.00    +0.157 C 
BRANCH  19  23
ATOM     20  C   LIG    1        0.000   0.000   0.000  0.00  0.00    +0.139 A 
ATOM     21  C   LIG    1        0.000   0.000   0.000  0.00  0.00    +0.037 A 
ATOM     22  C   LIG    1        0.000   0.000   0.000  0.00  0.00    +0.001 A 
ATOM     23  C   LIG    1        0.000   0.000   0.000  0.00  0.00    +0.002 A 
ATOM     24  C   LIG    1        0.000   0.000   0.000  0.00  0.00    +0.001 A 
ATOM     25  C   LIG    1        0.000   0.000   0.000  0.00  0.00    +0.037 A 
BRANCH  20  27
ATOM     26  C   LIG    1        0.000   0.000   0.000  0.00  0.00    +0.252 C 
ATOM     27  O   LIG    1        0.000   0.000   0.000  0.00  0.00    -0.471 OA
ENDBRANCH  20  27
ENDBRANCH  19  23
ENDBRANCH   1  19
TORSDOF 7
ENDMDL
MODEL       47
REMARK  Name = 
REMARK                            x       y       z     vdW  Elec       q    Type
REMARK                         _______ _______ _______ _____ _____    ______ ____
ROOT
ATOM      1  C   LIG    1        0.000   0.000   0.000  0.00  0.00    +0.105 A 
ATOM      2  N   LIG    1        0.000   0.000   0.000  0.00  0.00    -0.167 NA
ATOM      3  N   LIG    1        0.000   0.000   0.000  0.00  0.00    -0.215 N 
ATOM      4  C   LIG    1        0.000   0.000   0.000  0.00  0.00    +0.297 A 
ATOM      5  C   LIG    1        0.000   0.000   0.000  0.00  0.00    +0.181 A 
ATOM      6  N   LIG    1        0.000   0.000   0.000  0.00  0.00    -0.072 NA
ATOM      7  O   LIG    1        0.000   0.000   0.000  0.00  0.00    -0.358 OA
ATOM      8  C   LIG    1        0.000   0.000   0.000  0.00  0.00    +0.156 A 
ATOM      9  C   LIG    1        0.000   0.000   0.000  0.00  0.00    +0.075 C 
ATOM     10  O   LIG    1        0.000   0.000   0.000  0.00  0.00    -0.264 OA
ATOM     11  C   LIG    1        0.000   0.000   0.000  0.00  0.00    +0.078 A 
ENDROOT
BRANCH   1  15
ATOM     12  C   LIG    1        0.000   0.000   0.000  0.00  0.00    +0.139 A 
ATOM     13  C   LIG    1        0.000   0.000   0.000  0.00  0.00    +0.037 A 
ATOM     14  C   LIG    1        0.000   0.000   0.000  0.00  0.00    +0.005 A 
ATOM     15  C   LIG    1        0.000   0.000   0.000  0.00  0.00    +0.020 A 
ATOM     16  C   LIG    1        0.000   0.000   0.000  0.00  0.00    +0.005 A 
ATOM     17  C   LIG    1        0.000   0.000   0.000  0.00  0.00    +0.037 A 
BRANCH  12  19
ATOM     18  C   LIG    1        0.000   0.000   0.000  0.00  0.00    +0.252 C 
ATOM     19  O   LIG    1        0.000   0.000   0.000  0.00  0.00    -0.471 OA
ENDBRANCH  12  19
ENDBRANCH   1  15
BRANCH   3  20
ATOM     20  C   LIG    1        0.000   0.000   0.000  0.00  0.00    +0.131 C 
BRANCH  20  21
ATOM     21  C   LIG    1        0.000   0.000   0.000  0.00  0.00    +0.036 C 
BRANCH  21  22
ATOM     22  C   LIG    1        0.000   0.000   0.000  0.00  0.00    +0.089 C 
BRANCH  22  23
ATOM     23  C   LIG    1        0.000   0.000   0.000  0.00  0.00    +0.241 C 
ATOM     24  N   LIG    1        0.000   0.000   0.000  0.00  0.00    -0.205 NA
ATOM     25  O   LIG    1        0.000   0.000   0.000  0.00  0.00    -0.273 OA
BRANCH  24  26
ATOM     26  C   LIG    1        0.000   0.000   0.000  0.00  0.00    +0.120 C 
BRANCH  26  27
ATOM     27  C   LIG    1        0.000   0.000   0.000  0.00  0.00    +0.050 C 
BRANCH  27  28
ATOM     28  C   LIG    1        0.000   0.000   0.000  0.00  0.00    -0.020 A 
ATOM     29  C   LIG    1        0.000   0.000   0.000  0.00  0.00    -0.005 A 
ATOM     30  C   LIG    1        0.000   0.000   0.000  0.00  0.00    -0.005 A 
ATOM     31  C   LIG    1        0.000   0.000   0.000  0.00  0.00    -0.022 A 
ATOM     32  C   LIG    1        0.000   0.000   0.000  0.00  0.00    -0.005 A 
ATOM     33  C   LIG    1        0.000   0.000   0.000  0.00  0.00    +0.031 C 
ATOM     34  C   LIG    1        0.000   0.000   0.000  0.00  0.00    -0.005 A 
ENDBRANCH  27  28
ENDBRANCH  26  27
ENDBRANCH  24  26
ENDBRANCH  22  23
ENDBRANCH  21  22
ENDBRANCH  20  21
ENDBRANCH   3  20
TORSDOF 9
ENDMDL
