REMARK  Name = 
REMARK                            x       y       z     vdW  Elec       q    Type
REMARK                         _______ _______ _______ _____ _____    ______ ____
ROOT
ATOM      1  N   LIG    1        0.000   0.000   0.000  0.00  0.00    -0.243 N 
ATOM      2  C   LIG    1        0.000   0.000   0.000  0.00  0.00    +0.285 A 
ATOM      3  C   LIG    1        0.000   0.000   0.000  0.00  0.00    +0.172 A 
ATOM      4  N   LIG    1        0.000   0.000   0.000  0.00  0.00    -0.234 NA
ATOM      5  C   LIG    1        0.000   0.000   0.000  0.00  0.00    +0.120 A 
ATOM      6  C   LIG    1        0.000   0.000   0.000  0.00  0.00    +0.121 A 
ATOM      7  N   LIG    1        0.000   0.000   0.000  0.00  0.00    -0.223 NA
ATOM      8  C   LIG    1        0.000   0.000   0.000  0.00  0.00    +0.170 A 
ATOM      9  N   LIG    1        0.000   0.000   0.000  0.00  0.00    -0.261 N 
ATOM     10  O   LIG    1        0.000   0.000   0.000  0.00  0.00    -0.265 OA
ATOM     11  C   LIG    1        0.000   0.000   0.000  0.00  0.00    +0.335 A 
ATOM     12  O   LIG    1        0.000   0.000   0.000  0.00  0.00    -0.246 OA
ENDROOT
BRANCH   1  13
ATOM     13  C   LIG    1        0.000   0.000   0.000  0.00  0.00    +0.140 C 
BRANCH  13  17
ATOM     14  C   LIG    1        0.000   0.000   0.000  0.00  0.00    +0.139 A 
ATOM     15  C   LIG    1        0.000   0.000   0.000  0.00  0.00    +0.037 A 
ATOM     16  C   LIG    1        0.000   0.000   0.000  0.00  0.00    +0.001 A 
ATOM     17  C   LIG    1        0.000   0.000   0.000  0.00  0.00    +0.001 A 
ATOM     18  C   LIG    1        0.000   0.000   0.000  0.00  0.00    +0.001 A 
ATOM     19  C   LIG    1        0.000   0.000   0.000  0.00  0.00    +0.037 A 
BRANCH  14  21
ATOM     20  C   LIG    1        0.000   0.000   0.000  0.00  0.00    +0.252 C 
ATOM     21  O   LIG    1        0.000   0.000   0.000  0.00  0.00    -0.471 OA
ENDBRANCH  14  21
ENDBRANCH  13  17
ENDBRANCH   1  13
BRANCH   9  22
ATOM     22  C   LIG    1        0.000   0.000   0.000  0.00  0.00    +0.138 C 
BRANCH  22  23
ATOM     23  C   LIG    1        0.000   0.000   0.000  0.00  0.00    -0.004 A 
ATOM     24  C   LIG    1        0.000   0.000   0.000  0.00  0.00    -0.007 A 
ATOM     25  C   LIG    1        0.000   0.000   0.000  0.00  0.00    -0.022 A 
ATOM     26  C   LIG    1        0.000   0.000   0.000  0.00  0.00    -0.005 A 
ATOM     27  C   LIG    1        0.000   0.000   0.000  0.00  0.00    -0.005 A 
ATOM     28  C   LIG    1        0.000   0.000   0.000  0.00  0.00    +0.031 C 
ATOM     29  C   LIG    1        0.000   0.000   0.000  0.00  0.00    -0.024 A 
ATOM     30  C   LIG    1        0.000   0.000   0.000  0.00  0.00    +0.031 C 
ENDBRANCH  22  23
ENDBRANCH   9  22
TORSDOF 5

