REMARK  Name = 
REMARK                            x       y       z     vdW  Elec       q    Type
REMARK                         _______ _______ _______ _____ _____    ______ ____
ROOT
ATOM      1  N   LIG    1        0.000   0.000   0.000  0.00  0.00    -0.256 N 
ATOM      2  C   LIG    1        0.000   0.000   0.000  0.00  0.00    +0.335 A 
ATOM      3  N   LIG    1        0.000   0.000   0.000  0.00  0.00    -0.247 N 
ATOM      4  C   LIG    1        0.000   0.000   0.000  0.00  0.00    +0.285 A 
ATOM      5  C   LIG    1        0.000   0.000   0.000  0.00  0.00    +0.171 A 
ATOM      6  N   LIG    1        0.000   0.000   0.000  0.00  0.00    -0.234 NA
ATOM      7  C   LIG    1        0.000   0.000   0.000  0.00  0.00    +0.120 A 
ATOM      8  C   LIG    1        0.000   0.000   0.000  0.00  0.00    +0.121 A 
ATOM      9  N   LIG    1        0.000   0.000   0.000  0.00  0.00    -0.223 NA
ATOM     10  O   LIG    1        0.000   0.000   0.000  0.00  0.00    -0.265 OA
ATOM     11  O   LIG    1        0.000   0.000   0.000  0.00  0.00    -0.246 OA
ATOM     12  C   LIG    1        0.000   0.000   0.000  0.00  0.00    +0.170 A 
ENDROOT
BRANCH   1  13
ATOM     13  C   LIG    1        0.000   0.000   0.000  0.00  0.00    +0.199 C 
BRANCH  13  15
ATOM     14  N   LIG    1        0.000   0.000   0.000  0.00  0.00    -0.199 NA
ATOM     15  C   LIG    1        0.000   0.000   0.000  0.00  0.00    +0.265 C 
ATOM     16  O   LIG    1        0.000   0.000   0.000  0.00  0.00    -0.271 OA
BRANCH  14  17
ATOM     17  C   LIG    1        0.000   0.000   0.000  0.00  0.00    +0.145 C 
BRANCH  17  22
ATOM     18  C   LIG    1        0.000   0.000   0.000  0.00  0.00    +0.172 A 
ATOM     19  C   LIG    1        0.000   0.000   0.000  0.00  0.00    +0.040 A 
ATOM     20  C   LIG    1        0.000   0.000   0.000  0.00  0.00    +0.003 A 
ATOM     21  C   LIG    1        0.000   0.000   0.000  0.00  0.00    +0.001 A 
ATOM     22  C   LIG    1        0.000   0.000   0.000  0.00  0.00    +0.036 A 
ATOM     23  C   LIG    1        0.000   0.000   0.000  0.00  0.00    +0.170 A 
BRANCH  18  25
ATOM     24  C   LIG    1        0.000   0.000   0.000  0.00  0.00    +0.253 C 
ATOM     25  O   LIG    1        0.000   0.000   0.000  0.00  0.00    -0.468 OA
ENDBRANCH  18  25
BRANCH  23  26
ATOM     26  O   LIG    1        0.000   0.000   0.000  0.00  0.00    -0.469 OA
ATOM     27  C   LIG    1        0.000   0.000   0.000  0.00  0.00    +0.253 C 
ENDBRANCH  23  26
ENDBRANCH  17  22
ENDBRANCH  14  17
ENDBRANCH  13  15
ENDBRANCH   1  13
BRANCH   3  28
ATOM     28  C   LIG    1        0.000   0.000   0.000  0.00  0.00    +0.118 C 
BRANCH  28  29
ATOM     29  C   LIG    1        0.000   0.000   0.000  0.00  0.00    +0.051 C 
BRANCH  29  30
ATOM     30  C   LIG    1        0.000   0.000   0.000  0.00  0.00    -0.020 A 
ATOM     31  C   LIG    1        0.000   0.000   0.000  0.00  0.00    -0.004 A 
ATOM     32  C   LIG    1        0.000   0.000   0.000  0.00  0.00    -0.000 A 
ATOM     33  C   LIG    1        0.000   0.000   0.000  0.00  0.00    -0.000 A 
ATOM     34  C   LIG    1        0.000   0.000   0.000  0.00  0.00    -0.000 A 
ATOM     35  C   LIG    1        0.000   0.000   0.000  0.00  0.00    -0.004 A 
ENDBRANCH  29  30
ENDBRANCH  28  29
ENDBRANCH   3  28
TORSDOF 9

