REMARK  Name = 
REMARK                            x       y       z     vdW  Elec       q    Type
REMARK                         _______ _______ _______ _____ _____    ______ ____
ROOT
ATOM      1  N   LIG    1        0.000   0.000   0.000  0.00  0.00    -0.199 NA
ATOM      2  C   LIG    1        0.000   0.000   0.000  0.00  0.00    +0.267 C 
ATOM      3  O   LIG    1        0.000   0.000   0.000  0.00  0.00    -0.271 OA
ENDROOT
BRANCH   1   4
ATOM      4  C   LIG    1        0.000   0.000   0.000  0.00  0.00    +0.142 C 
BRANCH   4   8
ATOM      5  C   LIG    1        0.000   0.000   0.000  0.00  0.00    +0.172 A 
ATOM      6  C   LIG    1        0.000   0.000   0.000  0.00  0.00    +0.040 A 
ATOM      7  C   LIG    1        0.000   0.000   0.000  0.00  0.00    +0.001 A 
ATOM      8  C   LIG    1        0.000   0.000   0.000  0.00  0.00    +0.003 A 
ATOM      9  C   LIG    1        0.000   0.000   0.000  0.00  0.00    +0.037 A 
ATOM     10  C   LIG    1        0.000   0.000   0.000  0.00  0.00    +0.172 A 
BRANCH  10  11
ATOM     11  O   LIG    1        0.000   0.000   0.000  0.00  0.00    -0.468 OA
ATOM     12  C   LIG    1        0.000   0.000   0.000  0.00  0.00    +0.253 C 
ENDBRANCH  10  11
BRANCH   5  13
ATOM     13  O   LIG    1        0.000   0.000   0.000  0.00  0.00    -0.472 OA
BRANCH  13  15
ATOM     14  C   LIG    1        0.000   0.000   0.000  0.00  0.00    +0.051 C 
ATOM     15  C   LIG    1        0.000   0.000   0.000  0.00  0.00    +0.206 C 
ENDBRANCH  13  15
ENDBRANCH   5  13
ENDBRANCH   4   8
ENDBRANCH   1   4
BRANCH   2  16
ATOM     16  C   LIG    1        0.000   0.000   0.000  0.00  0.00    +0.217 C 
BRANCH  16  17
ATOM     17  N   LIG    1        0.000   0.000   0.000  0.00  0.00    -0.206 N 
ATOM     18  N   LIG    1        0.000   0.000   0.000  0.00  0.00    -0.171 NA
ATOM     19  C   LIG    1        0.000   0.000   0.000  0.00  0.00    +0.083 A 
ATOM     20  C   LIG    1        0.000   0.000   0.000  0.00  0.00    +0.074 A 
ATOM     21  C   LIG    1        0.000   0.000   0.000  0.00  0.00    +0.156 A 
ATOM     22  O   LIG    1        0.000   0.000   0.000  0.00  0.00    -0.358 OA
ATOM     23  N   LIG    1        0.000   0.000   0.000  0.00  0.00    -0.072 NA
ATOM     24  C   LIG    1        0.000   0.000   0.000  0.00  0.00    +0.075 C 
ATOM     25  C   LIG    1        0.000   0.000   0.000  0.00  0.00    +0.181 A 
ATOM     26  C   LIG    1        0.000   0.000   0.000  0.00  0.00    +0.054 C 
ATOM     27  C   LIG    1        0.000   0.000   0.000  0.00  0.00    +0.298 A 
ATOM     28  O   LIG    1        0.000   0.000   0.000  0.00  0.00    -0.264 OA
ENDBRANCH  16  17
ENDBRANCH   2  16
TORSDOF 7

