REMARK  Name = 
REMARK                            x       y       z     vdW  Elec       q    Type
REMARK                         _______ _______ _______ _____ _____    ______ ____
ROOT
ATOM      1  N   LIG    1        0.000   0.000   0.000  0.00  0.00    -0.245 N 
ATOM      2  N   LIG    1        0.000   0.000   0.000  0.00  0.00    -0.172 NA
ATOM      3  C   LIG    1        0.000   0.000   0.000  0.00  0.00    +0.096 A 
ATOM      4  C   LIG    1        0.000   0.000   0.000  0.00  0.00    +0.101 A 
ATOM      5  N   LIG    1        0.000   0.000   0.000  0.00  0.00    -0.269 N 
ATOM      6  C   LIG    1        0.000   0.000   0.000  0.00  0.00    +0.335 A 
ATOM      7  O   LIG    1        0.000   0.000   0.000  0.00  0.00    -0.246 OA
ATOM      8  N   LIG    1        0.000   0.000   0.000  0.00  0.00    -0.243 N 
ATOM      9  C   LIG    1        0.000   0.000   0.000  0.00  0.00    +0.283 A 
ATOM     10  O   LIG    1        0.000   0.000   0.000  0.00  0.00    -0.265 OA
ATOM     11  C   LIG    1        0.000   0.000   0.000  0.00  0.00    +0.056 C 
ATOM     12  C   LIG    1        0.000   0.000   0.000  0.00  0.00    +0.151 A 
ENDROOT
BRANCH   1  14
ATOM     13  C   LIG    1        0.000   0.000   0.000  0.00  0.00    +0.028 C 
ATOM     14  C   LIG    1        0.000   0.000   0.000  0.00  0.00    +0.128 C 
ENDBRANCH   1  14
BRANCH   5  15
ATOM     15  C   LIG    1        0.000   0.000   0.000  0.00  0.00    +0.196 C 
BRANCH  15  16
ATOM     16  C   LIG    1        0.000   0.000   0.000  0.00  0.00    +0.249 C 
ATOM     17  N   LIG    1        0.000   0.000   0.000  0.00  0.00    -0.278 N 
ATOM     18  C   LIG    1        0.000   0.000   0.000  0.00  0.00    +0.093 C 
ATOM     19  C   LIG    1        0.000   0.000   0.000  0.00  0.00    +0.022 C 
ATOM     20  C   LIG    1        0.000   0.000   0.000  0.00  0.00    +0.004 C 
ATOM     21  C   LIG    1        0.000   0.000   0.000  0.00  0.00    +0.022 C 
ATOM     22  C   LIG    1        0.000   0.000   0.000  0.00  0.00    +0.093 C 
ATOM     23  O   LIG    1        0.000   0.000   0.000  0.00  0.00    -0.273 OA
ENDBRANCH  15  16
ENDBRANCH   5  15
BRANCH   8  24
ATOM     24  C   LIG    1        0.000   0.000   0.000  0.00  0.00    +0.140 C 
BRANCH  24  25
ATOM     25  C   LIG    1        0.000   0.000   0.000  0.00  0.00    +0.001 A 
ATOM     26  C   LIG    1        0.000   0.000   0.000  0.00  0.00    +0.001 A 
ATOM     27  C   LIG    1        0.000   0.000   0.000  0.00  0.00    +0.037 A 
ATOM     28  C   LIG    1        0.000   0.000   0.000  0.00  0.00    +0.139 A 
ATOM     29  C   LIG    1        0.000   0.000   0.000  0.00  0.00    +0.037 A 
ATOM     30  C   LIG    1        0.000   0.000   0.000  0.00  0.00    +0.001 A 
BRANCH  28  31
ATOM     31  O   LIG    1        0.000   0.000   0.000  0.00  0.00    -0.471 OA
ATOM     32  C   LIG    1        0.000   0.000   0.000  0.00  0.00    +0.252 C 
ENDBRANCH  28  31
ENDBRANCH  24  25
ENDBRANCH   8  24
TORSDOF 6

