REMARK  Name = 
REMARK                            x       y       z     vdW  Elec       q    Type
REMARK                         _______ _______ _______ _____ _____    ______ ____
ROOT
ATOM      1  N   LIG    1        0.000   0.000   0.000  0.00  0.00    -0.245 N 
ATOM      2  N   LIG    1        0.000   0.000   0.000  0.00  0.00    -0.172 NA
ATOM      3  C   LIG    1        0.000   0.000   0.000  0.00  0.00    +0.096 A 
ATOM      4  C   LIG    1        0.000   0.000   0.000  0.00  0.00    +0.101 A 
ATOM      5  N   LIG    1        0.000   0.000   0.000  0.00  0.00    -0.274 N 
ATOM      6  C   LIG    1        0.000   0.000   0.000  0.00  0.00    +0.334 A 
ATOM      7  O   LIG    1        0.000   0.000   0.000  0.00  0.00    -0.246 OA
ATOM      8  N   LIG    1        0.000   0.000   0.000  0.00  0.00    -0.247 N 
ATOM      9  C   LIG    1        0.000   0.000   0.000  0.00  0.00    +0.283 A 
ATOM     10  O   LIG    1        0.000   0.000   0.000  0.00  0.00    -0.265 OA
ATOM     11  C   LIG    1        0.000   0.000   0.000  0.00  0.00    +0.056 C 
ATOM     12  C   LIG    1        0.000   0.000   0.000  0.00  0.00    +0.151 A 
ENDROOT
BRANCH   1  14
ATOM     13  C   LIG    1        0.000   0.000   0.000  0.00  0.00    +0.028 C 
ATOM     14  C   LIG    1        0.000   0.000   0.000  0.00  0.00    +0.128 C 
ENDBRANCH   1  14
BRANCH   5  15
ATOM     15  C   LIG    1        0.000   0.000   0.000  0.00  0.00    +0.137 C 
BRANCH  15  16
ATOM     16  C   LIG    1        0.000   0.000   0.000  0.00  0.00    +0.000 A 
ATOM     17  C   LIG    1        0.000   0.000   0.000  0.00  0.00    -0.002 A 
ATOM     18  C   LIG    1        0.000   0.000   0.000  0.00  0.00    -0.000 A 
ATOM     19  C   LIG    1        0.000   0.000   0.000  0.00  0.00    +0.004 A 
ATOM     20  C   LIG    1        0.000   0.000   0.000  0.00  0.00    +0.071 A 
ATOM     21  C   LIG    1        0.000   0.000   0.000  0.00  0.00    +0.001 A 
BRANCH  20  22
ATOM     22  C   LIG    1        0.000   0.000   0.000  0.00  0.00    +0.419 C 
ATOM     23  F   LIG    1        0.000   0.000   0.000  0.00  0.00    -0.166 F 
ATOM     24  F   LIG    1        0.000   0.000   0.000  0.00  0.00    -0.166 F 
ATOM     25  F   LIG    1        0.000   0.000   0.000  0.00  0.00    -0.166 F 
ENDBRANCH  20  22
ENDBRANCH  15  16
ENDBRANCH   5  15
BRANCH   8  26
ATOM     26  C   LIG    1        0.000   0.000   0.000  0.00  0.00    +0.118 C 
BRANCH  26  27
ATOM     27  C   LIG    1        0.000   0.000   0.000  0.00  0.00    +0.051 C 
BRANCH  27  28
ATOM     28  C   LIG    1        0.000   0.000   0.000  0.00  0.00    -0.020 A 
ATOM     29  C   LIG    1        0.000   0.000   0.000  0.00  0.00    -0.004 A 
ATOM     30  C   LIG    1        0.000   0.000   0.000  0.00  0.00    -0.000 A 
ATOM     31  C   LIG    1        0.000   0.000   0.000  0.00  0.00    -0.000 A 
ATOM     32  C   LIG    1        0.000   0.000   0.000  0.00  0.00    -0.000 A 
ATOM     33  C   LIG    1        0.000   0.000   0.000  0.00  0.00    -0.004 A 
ENDBRANCH  27  28
ENDBRANCH  26  27
ENDBRANCH   8  26
TORSDOF 7

