REMARK  Name = 
REMARK                            x       y       z     vdW  Elec       q    Type
REMARK                         _______ _______ _______ _____ _____    ______ ____
ROOT
ATOM      1  N   LIG    1        0.000   0.000   0.000  0.00  0.00    -0.256 N 
ATOM      2  C   LIG    1        0.000   0.000   0.000  0.00  0.00    +0.336 A 
ATOM      3  N   LIG    1        0.000   0.000   0.000  0.00  0.00    -0.243 N 
ATOM      4  C   LIG    1        0.000   0.000   0.000  0.00  0.00    +0.285 A 
ATOM      5  C   LIG    1        0.000   0.000   0.000  0.00  0.00    +0.172 A 
ATOM      6  N   LIG    1        0.000   0.000   0.000  0.00  0.00    -0.234 NA
ATOM      7  C   LIG    1        0.000   0.000   0.000  0.00  0.00    +0.120 A 
ATOM      8  C   LIG    1        0.000   0.000   0.000  0.00  0.00    +0.121 A 
ATOM      9  N   LIG    1        0.000   0.000   0.000  0.00  0.00    -0.223 NA
ATOM     10  O   LIG    1        0.000   0.000   0.000  0.00  0.00    -0.265 OA
ATOM     11  O   LIG    1        0.000   0.000   0.000  0.00  0.00    -0.246 OA
ATOM     12  C   LIG    1        0.000   0.000   0.000  0.00  0.00    +0.170 A 
ENDROOT
BRANCH   1  13
ATOM     13  C   LIG    1        0.000   0.000   0.000  0.00  0.00    +0.199 C 
BRANCH  13  15
ATOM     14  N   LIG    1        0.000   0.000   0.000  0.00  0.00    -0.206 NA
ATOM     15  C   LIG    1        0.000   0.000   0.000  0.00  0.00    +0.265 C 
ATOM     16  O   LIG    1        0.000   0.000   0.000  0.00  0.00    -0.271 OA
BRANCH  14  17
ATOM     17  C   LIG    1        0.000   0.000   0.000  0.00  0.00    +0.095 C 
ATOM     18  C   LIG    1        0.000   0.000   0.000  0.00  0.00    +0.023 C 
BRANCH  17  20
ATOM     19  C   LIG    1        0.000   0.000   0.000  0.00  0.00    +0.002 C 
ATOM     20  C   LIG    1        0.000   0.000   0.000  0.00  0.00    +0.022 C 
ENDBRANCH  17  20
ENDBRANCH  14  17
ENDBRANCH  13  15
ENDBRANCH   1  13
BRANCH   3  21
ATOM     21  C   LIG    1        0.000   0.000   0.000  0.00  0.00    +0.140 C 
BRANCH  21  22
ATOM     22  C   LIG    1        0.000   0.000   0.000  0.00  0.00    +0.001 A 
ATOM     23  C   LIG    1        0.000   0.000   0.000  0.00  0.00    +0.001 A 
ATOM     24  C   LIG    1        0.000   0.000   0.000  0.00  0.00    +0.037 A 
ATOM     25  C   LIG    1        0.000   0.000   0.000  0.00  0.00    +0.139 A 
ATOM     26  C   LIG    1        0.000   0.000   0.000  0.00  0.00    +0.037 A 
ATOM     27  C   LIG    1        0.000   0.000   0.000  0.00  0.00    +0.001 A 
BRANCH  25  28
ATOM     28  O   LIG    1        0.000   0.000   0.000  0.00  0.00    -0.471 OA
ATOM     29  C   LIG    1        0.000   0.000   0.000  0.00  0.00    +0.252 C 
ENDBRANCH  25  28
ENDBRANCH  21  22
ENDBRANCH   3  21
TORSDOF 7

