REMARK  Name = 
REMARK                            x       y       z     vdW  Elec       q    Type
REMARK                         _______ _______ _______ _____ _____    ______ ____
ROOT
ATOM      1  N   LIG    1        0.000   0.000   0.000  0.00  0.00    -0.265 N 
ATOM      2  C   LIG    1        0.000   0.000   0.000  0.00  0.00    +0.335 A 
ATOM      3  N   LIG    1        0.000   0.000   0.000  0.00  0.00    -0.243 N 
ATOM      4  C   LIG    1        0.000   0.000   0.000  0.00  0.00    +0.285 A 
ATOM      5  C   LIG    1        0.000   0.000   0.000  0.00  0.00    +0.171 A 
ATOM      6  N   LIG    1        0.000   0.000   0.000  0.00  0.00    -0.234 NA
ATOM      7  C   LIG    1        0.000   0.000   0.000  0.00  0.00    +0.120 A 
ATOM      8  C   LIG    1        0.000   0.000   0.000  0.00  0.00    +0.121 A 
ATOM      9  N   LIG    1        0.000   0.000   0.000  0.00  0.00    -0.223 NA
ATOM     10  O   LIG    1        0.000   0.000   0.000  0.00  0.00    -0.265 OA
ATOM     11  O   LIG    1        0.000   0.000   0.000  0.00  0.00    -0.246 OA
ATOM     12  C   LIG    1        0.000   0.000   0.000  0.00  0.00    +0.170 A 
ENDROOT
BRANCH   1  14
ATOM     13  C   LIG    1        0.000   0.000   0.000  0.00  0.00    +0.027 C 
ATOM     14  C   LIG    1        0.000   0.000   0.000  0.00  0.00    +0.112 C 
ENDBRANCH   1  14
BRANCH   3  15
ATOM     15  C   LIG    1        0.000   0.000   0.000  0.00  0.00    +0.140 C 
BRANCH  15  16
ATOM     16  C   LIG    1        0.000   0.000   0.000  0.00  0.00    +0.001 A 
ATOM     17  C   LIG    1        0.000   0.000   0.000  0.00  0.00    +0.001 A 
ATOM     18  C   LIG    1        0.000   0.000   0.000  0.00  0.00    +0.037 A 
ATOM     19  C   LIG    1        0.000   0.000   0.000  0.00  0.00    +0.139 A 
ATOM     20  C   LIG    1        0.000   0.000   0.000  0.00  0.00    +0.037 A 
ATOM     21  C   LIG    1        0.000   0.000   0.000  0.00  0.00    +0.001 A 
BRANCH  19  22
ATOM     22  O   LIG    1        0.000   0.000   0.000  0.00  0.00    -0.471 OA
ATOM     23  C   LIG    1        0.000   0.000   0.000  0.00  0.00    +0.252 C 
ENDBRANCH  19  22
ENDBRANCH  15  16
ENDBRANCH   3  15
TORSDOF 4

