REMARK  Name = 
REMARK                            x       y       z     vdW  Elec       q    Type
REMARK                         _______ _______ _______ _____ _____    ______ ____
ROOT
ATOM      1  C   LIG    1        0.000   0.000   0.000  0.00  0.00    +0.132 A 
ATOM      2  C   LIG    1        0.000   0.000   0.000  0.00  0.00    +0.087 A 
ATOM      3  N   LIG    1        0.000   0.000   0.000  0.00  0.00    -0.303 N 
ATOM      4  C   LIG    1        0.000   0.000   0.000  0.00  0.00    +0.147 A 
ATOM      5  N   LIG    1        0.000   0.000   0.000  0.00  0.00    -0.232 NA
ATOM      6  C   LIG    1        0.000   0.000   0.000  0.00  0.00    +0.061 A 
ATOM      7  C   LIG    1        0.000   0.000   0.000  0.00  0.00    +0.015 A 
ATOM      8  C   LIG    1        0.000   0.000   0.000  0.00  0.00    +0.007 A 
ATOM      9  C   LIG    1        0.000   0.000   0.000  0.00  0.00    +0.052 C 
ATOM     10  C   LIG    1        0.000   0.000   0.000  0.00  0.00    +0.073 A 
ATOM     11  C   LIG    1        0.000   0.000   0.000  0.00  0.00    +0.206 A 
ATOM     12  O   LIG    1        0.000   0.000   0.000  0.00  0.00    -0.286 OA
ENDROOT
BRANCH   1  13
ATOM     13  C   LIG    1        0.000   0.000   0.000  0.00  0.00    +0.346 C 
ATOM     14  O   LIG    1        0.000   0.000   0.000  0.00  0.00    -0.245 OA
BRANCH  13  15
ATOM     15  O   LIG    1        0.000   0.000   0.000  0.00  0.00    -0.445 OA
BRANCH  15  17
ATOM     16  C   LIG    1        0.000   0.000   0.000  0.00  0.00    +0.051 C 
ATOM     17  C   LIG    1        0.000   0.000   0.000  0.00  0.00    +0.209 C 
ENDBRANCH  15  17
ENDBRANCH  13  15
ENDBRANCH   1  13
BRANCH   3  18
ATOM     18  C   LIG    1        0.000   0.000   0.000  0.00  0.00    +0.195 C 
BRANCH  18  19
ATOM     19  C   LIG    1        0.000   0.000   0.000  0.00  0.00    +0.265 C 
ATOM     20  N   LIG    1        0.000   0.000   0.000  0.00  0.00    -0.203 NA
ATOM     21  O   LIG    1        0.000   0.000   0.000  0.00  0.00    -0.271 OA
BRANCH  20  22
ATOM     22  C   LIG    1        0.000   0.000   0.000  0.00  0.00    +0.120 C 
BRANCH  22  23
ATOM     23  C   LIG    1        0.000   0.000   0.000  0.00  0.00    +0.050 C 
BRANCH  23  24
ATOM     24  C   LIG    1        0.000   0.000   0.000  0.00  0.00    -0.017 A 
ATOM     25  C   LIG    1        0.000   0.000   0.000  0.00  0.00    -0.001 A 
ATOM     26  C   LIG    1        0.000   0.000   0.000  0.00  0.00    +0.040 A 
ATOM     27  C   LIG    1        0.000   0.000   0.000  0.00  0.00    +0.172 A 
ATOM     28  C   LIG    1        0.000   0.000   0.000  0.00  0.00    +0.172 A 
ATOM     29  C   LIG    1        0.000   0.000   0.000  0.00  0.00    +0.036 A 
BRANCH  28  30
ATOM     30  O   LIG    1        0.000   0.000   0.000  0.00  0.00    -0.468 OA
ATOM     31  C   LIG    1        0.000   0.000   0.000  0.00  0.00    +0.253 C 
ENDBRANCH  28  30
BRANCH  27  32
ATOM     32  O   LIG    1        0.000   0.000   0.000  0.00  0.00    -0.468 OA
ATOM     33  C   LIG    1        0.000   0.000   0.000  0.00  0.00    +0.253 C 
ENDBRANCH  27  32
ENDBRANCH  23  24
ENDBRANCH  22  23
ENDBRANCH  20  22
ENDBRANCH  18  19
ENDBRANCH   3  18
TORSDOF 10

