REMARK  Name = 
REMARK                            x       y       z     vdW  Elec       q    Type
REMARK                         _______ _______ _______ _____ _____    ______ ____
ROOT
ATOM      1  C   LIG    1        0.000   0.000   0.000  0.00  0.00    +0.155 A 
ATOM      2  N   LIG    1        0.000   0.000   0.000  0.00  0.00    -0.197 NA
ATOM      3  C   LIG    1        0.000   0.000   0.000  0.00  0.00    +0.223 A 
ATOM      4  N   LIG    1        0.000   0.000   0.000  0.00  0.00    -0.195 NA
ATOM      5  C   LIG    1        0.000   0.000   0.000  0.00  0.00    +0.167 A 
ATOM      6  N   LIG    1        0.000   0.000   0.000  0.00  0.00    -0.232 N 
ATOM      7  C   LIG    1        0.000   0.000   0.000  0.00  0.00    +0.155 C 
ATOM      8  N   LIG    1        0.000   0.000   0.000  0.00  0.00    -0.166 NA
ATOM      9  C   LIG    1        0.000   0.000   0.000  0.00  0.00    +0.126 A 
ATOM     10  C   LIG    1        0.000   0.000   0.000  0.00  0.00    +0.089 A 
ENDROOT
BRANCH   3  11
ATOM     11  N   LIG    1        0.000   0.000   0.000  0.00  0.00    -0.275 N 
ATOM     12  C   LIG    1        0.000   0.000   0.000  0.00  0.00    +0.111 C 
ATOM     13  C   LIG    1        0.000   0.000   0.000  0.00  0.00    +0.094 C 
ATOM     14  N   LIG    1        0.000   0.000   0.000  0.00  0.00    -0.269 NA
ATOM     15  C   LIG    1        0.000   0.000   0.000  0.00  0.00    +0.094 C 
ATOM     16  C   LIG    1        0.000   0.000   0.000  0.00  0.00    +0.090 C 
ATOM     17  C   LIG    1        0.000   0.000   0.000  0.00  0.00    +0.111 C 
ENDBRANCH   3  11
BRANCH   1  18
ATOM     18  N   LIG    1        0.000   0.000   0.000  0.00  0.00    -0.215 NA
BRANCH  18  19
ATOM     19  C   LIG    1        0.000   0.000   0.000  0.00  0.00    +0.140 C 
BRANCH  19  23
ATOM     20  C   LIG    1        0.000   0.000   0.000  0.00  0.00    +0.139 A 
ATOM     21  C   LIG    1        0.000   0.000   0.000  0.00  0.00    +0.037 A 
ATOM     22  C   LIG    1        0.000   0.000   0.000  0.00  0.00    +0.001 A 
ATOM     23  C   LIG    1        0.000   0.000   0.000  0.00  0.00    -0.000 A 
ATOM     24  C   LIG    1        0.000   0.000   0.000  0.00  0.00    +0.001 A 
ATOM     25  C   LIG    1        0.000   0.000   0.000  0.00  0.00    +0.037 A 
BRANCH  20  27
ATOM     26  C   LIG    1        0.000   0.000   0.000  0.00  0.00    +0.252 C 
ATOM     27  O   LIG    1        0.000   0.000   0.000  0.00  0.00    -0.471 OA
ENDBRANCH  20  27
ENDBRANCH  19  23
ENDBRANCH  18  19
ENDBRANCH   1  18
TORSDOF 5

