REMARK  Name = 
REMARK                            x       y       z     vdW  Elec       q    Type
REMARK                         _______ _______ _______ _____ _____    ______ ____
ROOT
ATOM      1  C   LIG    1        0.000   0.000   0.000  0.00  0.00    +0.223 A 
ATOM      2  N   LIG    1        0.000   0.000   0.000  0.00  0.00    -0.197 NA
ATOM      3  C   LIG    1        0.000   0.000   0.000  0.00  0.00    +0.155 A 
ATOM      4  C   LIG    1        0.000   0.000   0.000  0.00  0.00    +0.089 A 
ATOM      5  C   LIG    1        0.000   0.000   0.000  0.00  0.00    +0.126 A 
ATOM      6  N   LIG    1        0.000   0.000   0.000  0.00  0.00    -0.166 NA
ATOM      7  N   LIG    1        0.000   0.000   0.000  0.00  0.00    -0.232 N 
ATOM      8  C   LIG    1        0.000   0.000   0.000  0.00  0.00    +0.155 C 
ATOM      9  C   LIG    1        0.000   0.000   0.000  0.00  0.00    +0.167 A 
ATOM     10  N   LIG    1        0.000   0.000   0.000  0.00  0.00    -0.195 NA
ENDROOT
BRANCH   1  11
ATOM     11  N   LIG    1        0.000   0.000   0.000  0.00  0.00    -0.278 N 
BRANCH  11  13
ATOM     12  C   LIG    1        0.000   0.000   0.000  0.00  0.00    +0.023 C 
ATOM     13  C   LIG    1        0.000   0.000   0.000  0.00  0.00    +0.094 C 
ENDBRANCH  11  13
BRANCH  11  14
ATOM     14  C   LIG    1        0.000   0.000   0.000  0.00  0.00    +0.094 C 
ATOM     15  C   LIG    1        0.000   0.000   0.000  0.00  0.00    +0.023 C 
ENDBRANCH  11  14
ENDBRANCH   1  11
BRANCH   3  16
ATOM     16  N   LIG    1        0.000   0.000   0.000  0.00  0.00    -0.215 NA
BRANCH  16  17
ATOM     17  C   LIG    1        0.000   0.000   0.000  0.00  0.00    +0.140 C 
BRANCH  17  18
ATOM     18  C   LIG    1        0.000   0.000   0.000  0.00  0.00    -0.001 A 
ATOM     19  C   LIG    1        0.000   0.000   0.000  0.00  0.00    -0.003 A 
ATOM     20  C   LIG    1        0.000   0.000   0.000  0.00  0.00    -0.000 A 
ATOM     21  C   LIG    1        0.000   0.000   0.000  0.00  0.00    -0.000 A 
ATOM     22  C   LIG    1        0.000   0.000   0.000  0.00  0.00    -0.000 A 
ATOM     23  C   LIG    1        0.000   0.000   0.000  0.00  0.00    -0.003 A 
ENDBRANCH  17  18
ENDBRANCH  16  17
ENDBRANCH   3  16
TORSDOF 6

