REMARK  Name = 
REMARK                            x       y       z     vdW  Elec       q    Type
REMARK                         _______ _______ _______ _____ _____    ______ ____
ROOT
ATOM      1  C   LIG    1        0.000   0.000   0.000  0.00  0.00    +0.116 A 
ATOM      2  C   LIG    1        0.000   0.000   0.000  0.00  0.00    +0.134 A 
ATOM      3  N   LIG    1        0.000   0.000   0.000  0.00  0.00    -0.161 NA
ATOM      4  N   LIG    1        0.000   0.000   0.000  0.00  0.00    -0.225 N 
ATOM      5  C   LIG    1        0.000   0.000   0.000  0.00  0.00    +0.174 A 
ATOM      6  N   LIG    1        0.000   0.000   0.000  0.00  0.00    -0.107 NA
ENDROOT
BRANCH   1  10
ATOM      7  C   LIG    1        0.000   0.000   0.000  0.00  0.00    +0.204 A 
ATOM      8  N   LIG    1        0.000   0.000   0.000  0.00  0.00    -0.056 NA
ATOM      9  O   LIG    1        0.000   0.000   0.000  0.00  0.00    -0.332 OA
ATOM     10  C   LIG    1        0.000   0.000   0.000  0.00  0.00    +0.265 A 
ATOM     11  N   LIG    1        0.000   0.000   0.000  0.00  0.00    -0.187 NA
BRANCH   7  15
ATOM     12  C   LIG    1        0.000   0.000   0.000  0.00  0.00    +0.139 A 
ATOM     13  C   LIG    1        0.000   0.000   0.000  0.00  0.00    +0.037 A 
ATOM     14  C   LIG    1        0.000   0.000   0.000  0.00  0.00    +0.006 A 
ATOM     15  C   LIG    1        0.000   0.000   0.000  0.00  0.00    +0.039 A 
ATOM     16  C   LIG    1        0.000   0.000   0.000  0.00  0.00    +0.006 A 
ATOM     17  C   LIG    1        0.000   0.000   0.000  0.00  0.00    +0.037 A 
BRANCH  12  19
ATOM     18  C   LIG    1        0.000   0.000   0.000  0.00  0.00    +0.252 C 
ATOM     19  O   LIG    1        0.000   0.000   0.000  0.00  0.00    -0.471 OA
ENDBRANCH  12  19
ENDBRANCH   7  15
ENDBRANCH   1  10
BRANCH   2  20
ATOM     20  S   LIG    1        0.000   0.000   0.000  0.00  0.00    -0.092 S 
ATOM     21  C   LIG    1        0.000   0.000   0.000  0.00  0.00    +0.076 C 
ENDBRANCH   2  20
BRANCH   4  22
ATOM     22  C   LIG    1        0.000   0.000   0.000  0.00  0.00    +0.215 C 
BRANCH  22  23
ATOM     23  C   LIG    1        0.000   0.000   0.000  0.00  0.00    +0.267 C 
ATOM     24  N   LIG    1        0.000   0.000   0.000  0.00  0.00    -0.199 NA
ATOM     25  O   LIG    1        0.000   0.000   0.000  0.00  0.00    -0.271 OA
BRANCH  24  26
ATOM     26  C   LIG    1        0.000   0.000   0.000  0.00  0.00    +0.142 C 
BRANCH  26  27
ATOM     27  C   LIG    1        0.000   0.000   0.000  0.00  0.00    -0.000 A 
ATOM     28  C   LIG    1        0.000   0.000   0.000  0.00  0.00    -0.000 A 
ATOM     29  C   LIG    1        0.000   0.000   0.000  0.00  0.00    +0.029 A 
ATOM     30  C   LIG    1        0.000   0.000   0.000  0.00  0.00    +0.140 A 
ATOM     31  C   LIG    1        0.000   0.000   0.000  0.00  0.00    +0.029 A 
ATOM     32  F   LIG    1        0.000   0.000   0.000  0.00  0.00    -0.204 F 
ATOM     33  C   LIG    1        0.000   0.000   0.000  0.00  0.00    -0.000 A 
ENDBRANCH  26  27
ENDBRANCH  24  26
ENDBRANCH  22  23
ENDBRANCH   4  22
TORSDOF 8

