REMARK  Name = 
REMARK                            x       y       z     vdW  Elec       q    Type
REMARK                         _______ _______ _______ _____ _____    ______ ____
ROOT
ATOM      1  C   LIG    1        0.000   0.000   0.000  0.00  0.00    +0.095 A 
ATOM      2  C   LIG    1        0.000   0.000   0.000  0.00  0.00    +0.084 A 
ATOM      3  N   LIG    1        0.000   0.000   0.000  0.00  0.00    -0.304 N 
ATOM      4  C   LIG    1        0.000   0.000   0.000  0.00  0.00    +0.147 A 
ATOM      5  N   LIG    1        0.000   0.000   0.000  0.00  0.00    -0.232 NA
ATOM      6  C   LIG    1        0.000   0.000   0.000  0.00  0.00    +0.061 A 
ATOM      7  C   LIG    1        0.000   0.000   0.000  0.00  0.00    +0.015 A 
ATOM      8  C   LIG    1        0.000   0.000   0.000  0.00  0.00    +0.007 A 
ATOM      9  C   LIG    1        0.000   0.000   0.000  0.00  0.00    +0.052 C 
ATOM     10  C   LIG    1        0.000   0.000   0.000  0.00  0.00    +0.073 A 
ATOM     11  C   LIG    1        0.000   0.000   0.000  0.00  0.00    +0.203 A 
ATOM     12  O   LIG    1        0.000   0.000   0.000  0.00  0.00    -0.286 OA
ENDROOT
BRANCH   1  13
ATOM     13  C   LIG    1        0.000   0.000   0.000  0.00  0.00    +0.200 C 
ATOM     14  O   LIG    1        0.000   0.000   0.000  0.00  0.00    -0.286 OA
BRANCH  13  18
ATOM     15  C   LIG    1        0.000   0.000   0.000  0.00  0.00    +0.139 A 
ATOM     16  C   LIG    1        0.000   0.000   0.000  0.00  0.00    +0.037 A 
ATOM     17  C   LIG    1        0.000   0.000   0.000  0.00  0.00    +0.006 A 
ATOM     18  C   LIG    1        0.000   0.000   0.000  0.00  0.00    +0.039 A 
ATOM     19  C   LIG    1        0.000   0.000   0.000  0.00  0.00    +0.006 A 
ATOM     20  C   LIG    1        0.000   0.000   0.000  0.00  0.00    +0.037 A 
BRANCH  15  22
ATOM     21  C   LIG    1        0.000   0.000   0.000  0.00  0.00    +0.252 C 
ATOM     22  O   LIG    1        0.000   0.000   0.000  0.00  0.00    -0.471 OA
ENDBRANCH  15  22
ENDBRANCH  13  18
ENDBRANCH   1  13
BRANCH   3  23
ATOM     23  C   LIG    1        0.000   0.000   0.000  0.00  0.00    +0.177 C 
BRANCH  23  24
ATOM     24  C   LIG    1        0.000   0.000   0.000  0.00  0.00    +0.199 C 
ATOM     25  O   LIG    1        0.000   0.000   0.000  0.00  0.00    -0.289 OA
BRANCH  24  26
ATOM     26  C   LIG    1        0.000   0.000   0.000  0.00  0.00    +0.074 A 
ATOM     27  C   LIG    1        0.000   0.000   0.000  0.00  0.00    +0.043 A 
ATOM     28  C   LIG    1        0.000   0.000   0.000  0.00  0.00    +0.139 A 
ATOM     29  C   LIG    1        0.000   0.000   0.000  0.00  0.00    +0.040 A 
ATOM     30  C   LIG    1        0.000   0.000   0.000  0.00  0.00    +0.040 A 
ATOM     31  C   LIG    1        0.000   0.000   0.000  0.00  0.00    +0.142 A 
BRANCH  28  32
ATOM     32  O   LIG    1        0.000   0.000   0.000  0.00  0.00    -0.471 OA
ATOM     33  C   LIG    1        0.000   0.000   0.000  0.00  0.00    +0.252 C 
ENDBRANCH  28  32
BRANCH  31  34
ATOM     34  O   LIG    1        0.000   0.000   0.000  0.00  0.00    -0.471 OA
ATOM     35  C   LIG    1        0.000   0.000   0.000  0.00  0.00    +0.252 C 
ENDBRANCH  31  34
ENDBRANCH  24  26
ENDBRANCH  23  24
ENDBRANCH   3  23
TORSDOF 8

