REMARK  Name = 
REMARK                            x       y       z     vdW  Elec       q    Type
REMARK                         _______ _______ _______ _____ _____    ______ ____
ROOT
ATOM      1  C   LIG    1        0.000   0.000   0.000  0.00  0.00    +0.226 C 
ATOM      2  N   LIG    1        0.000   0.000   0.000  0.00  0.00    -0.275 N 
ATOM      3  C   LIG    1        0.000   0.000   0.000  0.00  0.00    +0.100 C 
ATOM      4  C   LIG    1        0.000   0.000   0.000  0.00  0.00    +0.067 C 
ATOM      5  C   LIG    1        0.000   0.000   0.000  0.00  0.00    +0.057 A 
ATOM      6  C   LIG    1        0.000   0.000   0.000  0.00  0.00    +0.035 A 
ATOM      7  C   LIG    1        0.000   0.000   0.000  0.00  0.00    +0.155 A 
ATOM      8  N   LIG    1        0.000   0.000   0.000  0.00  0.00    -0.165 NA
ATOM      9  N   LIG    1        0.000   0.000   0.000  0.00  0.00    -0.253 N 
ATOM     10  C   LIG    1        0.000   0.000   0.000  0.00  0.00    +0.153 C 
ATOM     11  C   LIG    1        0.000   0.000   0.000  0.00  0.00    +0.123 C 
ATOM     12  O   LIG    1        0.000   0.000   0.000  0.00  0.00    -0.275 OA
ENDROOT
BRANCH   7  13
ATOM     13  C   LIG    1        0.000   0.000   0.000  0.00  0.00    +0.279 A 
ATOM     14  N   LIG    1        0.000   0.000   0.000  0.00  0.00    -0.186 NA
ATOM     15  C   LIG    1        0.000   0.000   0.000  0.00  0.00    +0.204 A 
ATOM     16  N   LIG    1        0.000   0.000   0.000  0.00  0.00    -0.056 NA
ATOM     17  O   LIG    1        0.000   0.000   0.000  0.00  0.00    -0.331 OA
BRANCH  15  18
ATOM     18  C   LIG    1        0.000   0.000   0.000  0.00  0.00    +0.039 A 
ATOM     19  C   LIG    1        0.000   0.000   0.000  0.00  0.00    +0.003 A 
ATOM     20  C   LIG    1        0.000   0.000   0.000  0.00  0.00    +0.000 A 
ATOM     21  C   LIG    1        0.000   0.000   0.000  0.00  0.00    +0.000 A 
ATOM     22  C   LIG    1        0.000   0.000   0.000  0.00  0.00    +0.000 A 
ATOM     23  C   LIG    1        0.000   0.000   0.000  0.00  0.00    +0.003 A 
ENDBRANCH  15  18
ENDBRANCH   7  13
BRANCH   1  24
ATOM     24  C   LIG    1        0.000   0.000   0.000  0.00  0.00    +0.090 C 
BRANCH  24  25
ATOM     25  C   LIG    1        0.000   0.000   0.000  0.00  0.00    +0.036 C 
BRANCH  25  29
ATOM     26  C   LIG    1        0.000   0.000   0.000  0.00  0.00    +0.139 A 
ATOM     27  C   LIG    1        0.000   0.000   0.000  0.00  0.00    +0.037 A 
ATOM     28  C   LIG    1        0.000   0.000   0.000  0.00  0.00    -0.001 A 
ATOM     29  C   LIG    1        0.000   0.000   0.000  0.00  0.00    -0.021 A 
ATOM     30  C   LIG    1        0.000   0.000   0.000  0.00  0.00    -0.001 A 
ATOM     31  C   LIG    1        0.000   0.000   0.000  0.00  0.00    +0.037 A 
BRANCH  26  33
ATOM     32  C   LIG    1        0.000   0.000   0.000  0.00  0.00    +0.252 C 
ATOM     33  O   LIG    1        0.000   0.000   0.000  0.00  0.00    -0.471 OA
ENDBRANCH  26  33
ENDBRANCH  25  29
ENDBRANCH  24  25
ENDBRANCH   1  24
TORSDOF 6

