REMARK  Name = 
REMARK                            x       y       z     vdW  Elec       q    Type
REMARK                         _______ _______ _______ _____ _____    ______ ____
ROOT
ATOM      1  C   LIG    1        0.000   0.000   0.000  0.00  0.00    +0.105 A 
ATOM      2  N   LIG    1        0.000   0.000   0.000  0.00  0.00    -0.167 NA
ATOM      3  N   LIG    1        0.000   0.000   0.000  0.00  0.00    -0.215 N 
ATOM      4  C   LIG    1        0.000   0.000   0.000  0.00  0.00    +0.297 A 
ATOM      5  C   LIG    1        0.000   0.000   0.000  0.00  0.00    +0.181 A 
ATOM      6  N   LIG    1        0.000   0.000   0.000  0.00  0.00    -0.072 NA
ATOM      7  O   LIG    1        0.000   0.000   0.000  0.00  0.00    -0.358 OA
ATOM      8  C   LIG    1        0.000   0.000   0.000  0.00  0.00    +0.156 A 
ATOM      9  C   LIG    1        0.000   0.000   0.000  0.00  0.00    +0.075 C 
ATOM     10  O   LIG    1        0.000   0.000   0.000  0.00  0.00    -0.264 OA
ATOM     11  C   LIG    1        0.000   0.000   0.000  0.00  0.00    +0.078 A 
ENDROOT
BRANCH   1  15
ATOM     12  C   LIG    1        0.000   0.000   0.000  0.00  0.00    +0.139 A 
ATOM     13  C   LIG    1        0.000   0.000   0.000  0.00  0.00    +0.037 A 
ATOM     14  C   LIG    1        0.000   0.000   0.000  0.00  0.00    +0.005 A 
ATOM     15  C   LIG    1        0.000   0.000   0.000  0.00  0.00    +0.020 A 
ATOM     16  C   LIG    1        0.000   0.000   0.000  0.00  0.00    +0.005 A 
ATOM     17  C   LIG    1        0.000   0.000   0.000  0.00  0.00    +0.037 A 
BRANCH  12  19
ATOM     18  C   LIG    1        0.000   0.000   0.000  0.00  0.00    +0.252 C 
ATOM     19  O   LIG    1        0.000   0.000   0.000  0.00  0.00    -0.471 OA
ENDBRANCH  12  19
ENDBRANCH   1  15
BRANCH   3  20
ATOM     20  C   LIG    1        0.000   0.000   0.000  0.00  0.00    +0.131 C 
BRANCH  20  21
ATOM     21  C   LIG    1        0.000   0.000   0.000  0.00  0.00    +0.036 C 
BRANCH  21  22
ATOM     22  C   LIG    1        0.000   0.000   0.000  0.00  0.00    +0.089 C 
BRANCH  22  23
ATOM     23  C   LIG    1        0.000   0.000   0.000  0.00  0.00    +0.241 C 
ATOM     24  N   LIG    1        0.000   0.000   0.000  0.00  0.00    -0.205 NA
ATOM     25  O   LIG    1        0.000   0.000   0.000  0.00  0.00    -0.273 OA
BRANCH  24  26
ATOM     26  C   LIG    1        0.000   0.000   0.000  0.00  0.00    +0.120 C 
BRANCH  26  27
ATOM     27  C   LIG    1        0.000   0.000   0.000  0.00  0.00    +0.050 C 
BRANCH  27  28
ATOM     28  C   LIG    1        0.000   0.000   0.000  0.00  0.00    -0.020 A 
ATOM     29  C   LIG    1        0.000   0.000   0.000  0.00  0.00    -0.005 A 
ATOM     30  C   LIG    1        0.000   0.000   0.000  0.00  0.00    -0.005 A 
ATOM     31  C   LIG    1        0.000   0.000   0.000  0.00  0.00    -0.022 A 
ATOM     32  C   LIG    1        0.000   0.000   0.000  0.00  0.00    -0.005 A 
ATOM     33  C   LIG    1        0.000   0.000   0.000  0.00  0.00    +0.031 C 
ATOM     34  C   LIG    1        0.000   0.000   0.000  0.00  0.00    -0.005 A 
ENDBRANCH  27  28
ENDBRANCH  26  27
ENDBRANCH  24  26
ENDBRANCH  22  23
ENDBRANCH  21  22
ENDBRANCH  20  21
ENDBRANCH   3  20
TORSDOF 9

