REMARK  Name = 
REMARK                            x       y       z     vdW  Elec       q    Type
REMARK                         _______ _______ _______ _____ _____    ______ ____
ROOT
ATOM      1  C   LIG    1        0.000   0.000   0.000  0.00  0.00    +0.270 C 
ATOM      2  N   LIG    1        0.000   0.000   0.000  0.00  0.00    -0.199 NA
ATOM      3  O   LIG    1        0.000   0.000   0.000  0.00  0.00    -0.268 OA
ENDROOT
BRANCH   1   6
ATOM      4  N   LIG    1        0.000   0.000   0.000  0.00  0.00    -0.311 N 
ATOM      5  C   LIG    1        0.000   0.000   0.000  0.00  0.00    +0.085 A 
ATOM      6  C   LIG    1        0.000   0.000   0.000  0.00  0.00    +0.111 A 
ATOM      7  C   LIG    1        0.000   0.000   0.000  0.00  0.00    +0.204 A 
ATOM      8  C   LIG    1        0.000   0.000   0.000  0.00  0.00    +0.073 A 
ATOM      9  C   LIG    1        0.000   0.000   0.000  0.00  0.00    +0.007 A 
ATOM     10  C   LIG    1        0.000   0.000   0.000  0.00  0.00    +0.015 A 
ATOM     11  C   LIG    1        0.000   0.000   0.000  0.00  0.00    +0.061 A 
ATOM     12  N   LIG    1        0.000   0.000   0.000  0.00  0.00    -0.232 NA
ATOM     13  C   LIG    1        0.000   0.000   0.000  0.00  0.00    +0.052 C 
ATOM     14  O   LIG    1        0.000   0.000   0.000  0.00  0.00    -0.286 OA
ATOM     15  C   LIG    1        0.000   0.000   0.000  0.00  0.00    +0.146 A 
BRANCH   4  17
ATOM     16  C   LIG    1        0.000   0.000   0.000  0.00  0.00    +0.027 C 
ATOM     17  C   LIG    1        0.000   0.000   0.000  0.00  0.00    +0.108 C 
ENDBRANCH   4  17
ENDBRANCH   1   6
BRANCH   2  18
ATOM     18  C   LIG    1        0.000   0.000   0.000  0.00  0.00    +0.118 C 
ATOM     19  C   LIG    1        0.000   0.000   0.000  0.00  0.00    +0.028 C 
BRANCH  18  20
ATOM     20  C   LIG    1        0.000   0.000   0.000  0.00  0.00    +0.001 A 
ATOM     21  C   LIG    1        0.000   0.000   0.000  0.00  0.00    +0.001 A 
ATOM     22  C   LIG    1        0.000   0.000   0.000  0.00  0.00    +0.040 A 
ATOM     23  C   LIG    1        0.000   0.000   0.000  0.00  0.00    +0.172 A 
ATOM     24  C   LIG    1        0.000   0.000   0.000  0.00  0.00    +0.172 A 
ATOM     25  C   LIG    1        0.000   0.000   0.000  0.00  0.00    +0.037 A 
BRANCH  24  26
ATOM     26  O   LIG    1        0.000   0.000   0.000  0.00  0.00    -0.468 OA
ATOM     27  C   LIG    1        0.000   0.000   0.000  0.00  0.00    +0.253 C 
ENDBRANCH  24  26
BRANCH  23  28
ATOM     28  O   LIG    1        0.000   0.000   0.000  0.00  0.00    -0.468 OA
ATOM     29  C   LIG    1        0.000   0.000   0.000  0.00  0.00    +0.253 C 
ENDBRANCH  23  28
ENDBRANCH  18  20
ENDBRANCH   2  18
TORSDOF 6

